
---------- Begin Simulation Statistics ----------
sim_seconds                                  0.091431                       # Number of seconds simulated
sim_ticks                                 91430722500                       # Number of ticks simulated
final_tick                                91430722500                       # Number of ticks from beginning of simulation (restored from checkpoints and never reset)
sim_freq                                 1000000000000                       # Frequency of simulated ticks
host_inst_rate                                1060402                       # Simulator instruction rate (inst/s)
host_op_rate                                  1751025                       # Simulator op (including micro ops) rate (op/s)
host_tick_rate                             2170550289                       # Simulator tick rate (ticks/s)
host_mem_usage                                 670940                       # Number of bytes of host memory used
host_seconds                                    42.12                       # Real time elapsed on the host
sim_insts                                    44667607                       # Number of instructions simulated
sim_ops                                      73758908                       # Number of ops (including micro ops) simulated
system.voltage_domain.voltage                       1                       # Voltage in Volts
system.clk_domain.clock                          1000                       # Clock period in ticks
system.mem_ctrls.pwrStateResidencyTicks::UNDEFINED  91430722500                       # Cumulative time (in ticks) in various power states
system.mem_ctrls.bytes_read::cpu.inst           47104                       # Number of bytes read from this memory
system.mem_ctrls.bytes_read::cpu.data         1032512                       # Number of bytes read from this memory
system.mem_ctrls.bytes_read::total            1079616                       # Number of bytes read from this memory
system.mem_ctrls.bytes_inst_read::cpu.inst        47104                       # Number of instructions bytes read from this memory
system.mem_ctrls.bytes_inst_read::total         47104                       # Number of instructions bytes read from this memory
system.mem_ctrls.bytes_written::writebacks       644800                       # Number of bytes written to this memory
system.mem_ctrls.bytes_written::total          644800                       # Number of bytes written to this memory
system.mem_ctrls.num_reads::cpu.inst              736                       # Number of read requests responded to by this memory
system.mem_ctrls.num_reads::cpu.data            16133                       # Number of read requests responded to by this memory
system.mem_ctrls.num_reads::total               16869                       # Number of read requests responded to by this memory
system.mem_ctrls.num_writes::writebacks         10075                       # Number of write requests responded to by this memory
system.mem_ctrls.num_writes::total              10075                       # Number of write requests responded to by this memory
system.mem_ctrls.bw_read::cpu.inst             515188                       # Total read bandwidth from this memory (bytes/s)
system.mem_ctrls.bw_read::cpu.data           11292834                       # Total read bandwidth from this memory (bytes/s)
system.mem_ctrls.bw_read::total              11808022                       # Total read bandwidth from this memory (bytes/s)
system.mem_ctrls.bw_inst_read::cpu.inst        515188                       # Instruction read bandwidth from this memory (bytes/s)
system.mem_ctrls.bw_inst_read::total           515188                       # Instruction read bandwidth from this memory (bytes/s)
system.mem_ctrls.bw_write::writebacks         7052334                       # Write bandwidth from this memory (bytes/s)
system.mem_ctrls.bw_write::total              7052334                       # Write bandwidth from this memory (bytes/s)
system.mem_ctrls.bw_total::writebacks         7052334                       # Total bandwidth to/from this memory (bytes/s)
system.mem_ctrls.bw_total::cpu.inst            515188                       # Total bandwidth to/from this memory (bytes/s)
system.mem_ctrls.bw_total::cpu.data          11292834                       # Total bandwidth to/from this memory (bytes/s)
system.mem_ctrls.bw_total::total             18860356                       # Total bandwidth to/from this memory (bytes/s)
system.pwrStateResidencyTicks::UNDEFINED  91430722500                       # Cumulative time (in ticks) in various power states
system.cpu_voltage_domain.voltage                   1                       # Voltage in Volts
system.cpu_clk_domain.clock                       500                       # Clock period in ticks
system.cpu.dtb.walker.pwrStateResidencyTicks::UNDEFINED  91430722500                       # Cumulative time (in ticks) in various power states
system.cpu.dtb.rdAccesses                    20998408                       # TLB accesses on read requests
system.cpu.dtb.wrAccesses                     5824776                       # TLB accesses on write requests
system.cpu.dtb.rdMisses                           231                       # TLB misses on read requests
system.cpu.dtb.wrMisses                           111                       # TLB misses on write requests
system.cpu.apic_clk_domain.clock                 8000                       # Clock period in ticks
system.cpu.interrupts.pwrStateResidencyTicks::UNDEFINED  91430722500                       # Cumulative time (in ticks) in various power states
system.cpu.itb.walker.pwrStateResidencyTicks::UNDEFINED  91430722500                       # Cumulative time (in ticks) in various power states
system.cpu.itb.rdAccesses                           0                       # TLB accesses on read requests
system.cpu.itb.wrAccesses                    59528532                       # TLB accesses on write requests
system.cpu.itb.rdMisses                             0                       # TLB misses on read requests
system.cpu.itb.wrMisses                            78                       # TLB misses on write requests
system.cpu.workload.numSyscalls                    25                       # Number of system calls
system.cpu.pwrStateResidencyTicks::ON     91430722500                       # Cumulative time (in ticks) in various power states
system.cpu.numCycles                        182861445                       # number of cpu cycles simulated
system.cpu.numWorkItemsStarted                      0                       # number of work items this cpu started
system.cpu.numWorkItemsCompleted                    0                       # number of work items this cpu completed
system.cpu.committedInsts                    44667607                       # Number of instructions committed
system.cpu.committedOps                      73758908                       # Number of ops (including micro ops) committed
system.cpu.num_int_alu_accesses              73234925                       # Number of integer alu accesses
system.cpu.num_fp_alu_accesses                   4324                       # Number of float alu accesses
system.cpu.num_vec_alu_accesses                     0                       # Number of vector alu accesses
system.cpu.num_func_calls                      945812                       # number of times a function call or return occured
system.cpu.num_conditional_control_insts      4246113                       # number of instructions that are conditional controls
system.cpu.num_int_insts                     73234925                       # number of integer instructions
system.cpu.num_fp_insts                          4324                       # number of float instructions
system.cpu.num_vec_insts                            0                       # number of vector instructions
system.cpu.num_int_register_reads           164564264                       # number of times the integer registers were read
system.cpu.num_int_register_writes           63904152                       # number of times the integer registers were written
system.cpu.num_fp_register_reads                 6422                       # number of times the floating registers were read
system.cpu.num_fp_register_writes                3209                       # number of times the floating registers were written
system.cpu.num_vec_register_reads                   0                       # number of times the vector registers were read
system.cpu.num_vec_register_writes                  0                       # number of times the vector registers were written
system.cpu.num_cc_register_reads             27729338                       # number of times the CC registers were read
system.cpu.num_cc_register_writes            24993571                       # number of times the CC registers were written
system.cpu.num_mem_refs                      26823176                       # number of memory refs
system.cpu.num_load_insts                    20998400                       # Number of load instructions
system.cpu.num_store_insts                    5824776                       # Number of store instructions
system.cpu.num_idle_cycles                          0                       # Number of idle cycles
system.cpu.num_busy_cycles                  182861445                       # Number of busy cycles
system.cpu.not_idle_fraction                        1                       # Percentage of non-idle cycles
system.cpu.idle_fraction                            0                       # Percentage of idle cycles
system.cpu.Branches                           5689970                       # Number of branches fetched
system.cpu.op_class::No_OpClass                177072      0.24%      0.24% # Class of executed instruction
system.cpu.op_class::IntAlu                  45751849     62.03%     62.27% # Class of executed instruction
system.cpu.op_class::IntMult                       15      0.00%     62.27% # Class of executed instruction
system.cpu.op_class::IntDiv                   1004199      1.36%     63.63% # Class of executed instruction
system.cpu.op_class::FloatAdd                     132      0.00%     63.63% # Class of executed instruction
system.cpu.op_class::FloatCmp                       0      0.00%     63.63% # Class of executed instruction
system.cpu.op_class::FloatCvt                       0      0.00%     63.63% # Class of executed instruction
system.cpu.op_class::FloatMult                      0      0.00%     63.63% # Class of executed instruction
system.cpu.op_class::FloatMultAcc                   0      0.00%     63.63% # Class of executed instruction
system.cpu.op_class::FloatDiv                       0      0.00%     63.63% # Class of executed instruction
system.cpu.op_class::FloatMisc                      0      0.00%     63.63% # Class of executed instruction
system.cpu.op_class::FloatSqrt                      0      0.00%     63.63% # Class of executed instruction
system.cpu.op_class::SimdAdd                      348      0.00%     63.63% # Class of executed instruction
system.cpu.op_class::SimdAddAcc                     0      0.00%     63.63% # Class of executed instruction
system.cpu.op_class::SimdAlu                      682      0.00%     63.63% # Class of executed instruction
system.cpu.op_class::SimdCmp                        0      0.00%     63.63% # Class of executed instruction
system.cpu.op_class::SimdCvt                      776      0.00%     63.63% # Class of executed instruction
system.cpu.op_class::SimdMisc                     530      0.00%     63.63% # Class of executed instruction
system.cpu.op_class::SimdMult                       0      0.00%     63.63% # Class of executed instruction
system.cpu.op_class::SimdMultAcc                    0      0.00%     63.63% # Class of executed instruction
system.cpu.op_class::SimdShift                    129      0.00%     63.63% # Class of executed instruction
system.cpu.op_class::SimdShiftAcc                   0      0.00%     63.63% # Class of executed instruction
system.cpu.op_class::SimdSqrt                       0      0.00%     63.63% # Class of executed instruction
system.cpu.op_class::SimdFloatAdd                   0      0.00%     63.63% # Class of executed instruction
system.cpu.op_class::SimdFloatAlu                   0      0.00%     63.63% # Class of executed instruction
system.cpu.op_class::SimdFloatCmp                   0      0.00%     63.63% # Class of executed instruction
system.cpu.op_class::SimdFloatCvt                   0      0.00%     63.63% # Class of executed instruction
system.cpu.op_class::SimdFloatDiv                   0      0.00%     63.63% # Class of executed instruction
system.cpu.op_class::SimdFloatMisc                  0      0.00%     63.63% # Class of executed instruction
system.cpu.op_class::SimdFloatMult                  0      0.00%     63.63% # Class of executed instruction
system.cpu.op_class::SimdFloatMultAcc               0      0.00%     63.63% # Class of executed instruction
system.cpu.op_class::SimdFloatSqrt                  0      0.00%     63.63% # Class of executed instruction
system.cpu.op_class::MemRead                 20997422     28.47%     92.10% # Class of executed instruction
system.cpu.op_class::MemWrite                 5824086      7.90%    100.00% # Class of executed instruction
system.cpu.op_class::FloatMemRead                 978      0.00%    100.00% # Class of executed instruction
system.cpu.op_class::FloatMemWrite                690      0.00%    100.00% # Class of executed instruction
system.cpu.op_class::IprAccess                      0      0.00%    100.00% # Class of executed instruction
system.cpu.op_class::InstPrefetch                   0      0.00%    100.00% # Class of executed instruction
system.cpu.op_class::total                   73758908                       # Class of executed instruction
system.cpu.dcache.tags.pwrStateResidencyTicks::UNDEFINED  91430722500                       # Cumulative time (in ticks) in various power states
system.cpu.dcache.tags.tagsinuse           511.431336                       # Cycle average of tags in use
system.cpu.dcache.tags.total_refs            26823184                       # Total number of references to valid blocks.
system.cpu.dcache.tags.sampled_refs             47013                       # Sample count of references to valid blocks.
system.cpu.dcache.tags.avg_refs            570.548231                       # Average number of references to valid blocks.
system.cpu.dcache.tags.warmup_cycle            761500                       # Cycle when the warmup percentage was hit.
system.cpu.dcache.tags.occ_blocks::cpu.data   511.431336                       # Average occupied blocks per requestor
system.cpu.dcache.tags.occ_percent::cpu.data     0.998889                       # Average percentage of cache occupancy
system.cpu.dcache.tags.occ_percent::total     0.998889                       # Average percentage of cache occupancy
system.cpu.dcache.tags.occ_task_id_blocks::1024          512                       # Occupied blocks per task id
system.cpu.dcache.tags.age_task_id_blocks_1024::0           14                       # Occupied blocks per task id
system.cpu.dcache.tags.age_task_id_blocks_1024::1           42                       # Occupied blocks per task id
system.cpu.dcache.tags.age_task_id_blocks_1024::2           33                       # Occupied blocks per task id
system.cpu.dcache.tags.age_task_id_blocks_1024::3          421                       # Occupied blocks per task id
system.cpu.dcache.tags.age_task_id_blocks_1024::4            2                       # Occupied blocks per task id
system.cpu.dcache.tags.occ_task_id_percent::1024            1                       # Percentage of cache occupancy per task id
system.cpu.dcache.tags.tag_accesses          53693381                       # Number of tag accesses
system.cpu.dcache.tags.data_accesses         53693381                       # Number of data accesses
system.cpu.dcache.pwrStateResidencyTicks::UNDEFINED  91430722500                       # Cumulative time (in ticks) in various power states
system.cpu.dcache.ReadReq_hits::cpu.data     20958483                       # number of ReadReq hits
system.cpu.dcache.ReadReq_hits::total        20958483                       # number of ReadReq hits
system.cpu.dcache.WriteReq_hits::cpu.data      5809584                       # number of WriteReq hits
system.cpu.dcache.WriteReq_hits::total        5809584                       # number of WriteReq hits
system.cpu.dcache.demand_hits::cpu.data      26768067                       # number of demand (read+write) hits
system.cpu.dcache.demand_hits::total         26768067                       # number of demand (read+write) hits
system.cpu.dcache.overall_hits::cpu.data     26768067                       # number of overall hits
system.cpu.dcache.overall_hits::total        26768067                       # number of overall hits
system.cpu.dcache.ReadReq_misses::cpu.data        39925                       # number of ReadReq misses
system.cpu.dcache.ReadReq_misses::total         39925                       # number of ReadReq misses
system.cpu.dcache.WriteReq_misses::cpu.data        15192                       # number of WriteReq misses
system.cpu.dcache.WriteReq_misses::total        15192                       # number of WriteReq misses
system.cpu.dcache.demand_misses::cpu.data        55117                       # number of demand (read+write) misses
system.cpu.dcache.demand_misses::total          55117                       # number of demand (read+write) misses
system.cpu.dcache.overall_misses::cpu.data        55117                       # number of overall misses
system.cpu.dcache.overall_misses::total         55117                       # number of overall misses
system.cpu.dcache.ReadReq_miss_latency::cpu.data   3653589000                       # number of ReadReq miss cycles
system.cpu.dcache.ReadReq_miss_latency::total   3653589000                       # number of ReadReq miss cycles
system.cpu.dcache.WriteReq_miss_latency::cpu.data   1363443000                       # number of WriteReq miss cycles
system.cpu.dcache.WriteReq_miss_latency::total   1363443000                       # number of WriteReq miss cycles
system.cpu.dcache.demand_miss_latency::cpu.data   5017032000                       # number of demand (read+write) miss cycles
system.cpu.dcache.demand_miss_latency::total   5017032000                       # number of demand (read+write) miss cycles
system.cpu.dcache.overall_miss_latency::cpu.data   5017032000                       # number of overall miss cycles
system.cpu.dcache.overall_miss_latency::total   5017032000                       # number of overall miss cycles
system.cpu.dcache.ReadReq_accesses::cpu.data     20998408                       # number of ReadReq accesses(hits+misses)
system.cpu.dcache.ReadReq_accesses::total     20998408                       # number of ReadReq accesses(hits+misses)
system.cpu.dcache.WriteReq_accesses::cpu.data      5824776                       # number of WriteReq accesses(hits+misses)
system.cpu.dcache.WriteReq_accesses::total      5824776                       # number of WriteReq accesses(hits+misses)
system.cpu.dcache.demand_accesses::cpu.data     26823184                       # number of demand (read+write) accesses
system.cpu.dcache.demand_accesses::total     26823184                       # number of demand (read+write) accesses
system.cpu.dcache.overall_accesses::cpu.data     26823184                       # number of overall (read+write) accesses
system.cpu.dcache.overall_accesses::total     26823184                       # number of overall (read+write) accesses
system.cpu.dcache.ReadReq_miss_rate::cpu.data     0.001901                       # miss rate for ReadReq accesses
system.cpu.dcache.ReadReq_miss_rate::total     0.001901                       # miss rate for ReadReq accesses
system.cpu.dcache.WriteReq_miss_rate::cpu.data     0.002608                       # miss rate for WriteReq accesses
system.cpu.dcache.WriteReq_miss_rate::total     0.002608                       # miss rate for WriteReq accesses
system.cpu.dcache.demand_miss_rate::cpu.data     0.002055                       # miss rate for demand accesses
system.cpu.dcache.demand_miss_rate::total     0.002055                       # miss rate for demand accesses
system.cpu.dcache.overall_miss_rate::cpu.data     0.002055                       # miss rate for overall accesses
system.cpu.dcache.overall_miss_rate::total     0.002055                       # miss rate for overall accesses
system.cpu.dcache.ReadReq_avg_miss_latency::cpu.data 91511.308704                       # average ReadReq miss latency
system.cpu.dcache.ReadReq_avg_miss_latency::total 91511.308704                       # average ReadReq miss latency
system.cpu.dcache.WriteReq_avg_miss_latency::cpu.data 89747.432859                       # average WriteReq miss latency
system.cpu.dcache.WriteReq_avg_miss_latency::total 89747.432859                       # average WriteReq miss latency
system.cpu.dcache.demand_avg_miss_latency::cpu.data 91025.128363                       # average overall miss latency
system.cpu.dcache.demand_avg_miss_latency::total 91025.128363                       # average overall miss latency
system.cpu.dcache.overall_avg_miss_latency::cpu.data 91025.128363                       # average overall miss latency
system.cpu.dcache.overall_avg_miss_latency::total 91025.128363                       # average overall miss latency
system.cpu.dcache.blocked_cycles::no_mshrs            0                       # number of cycles access was blocked
system.cpu.dcache.blocked_cycles::no_targets            0                       # number of cycles access was blocked
system.cpu.dcache.blocked::no_mshrs                 0                       # number of cycles access was blocked
system.cpu.dcache.blocked::no_targets               0                       # number of cycles access was blocked
system.cpu.dcache.avg_blocked_cycles::no_mshrs          nan                       # average number of cycles each access was blocked
system.cpu.dcache.avg_blocked_cycles::no_targets          nan                       # average number of cycles each access was blocked
system.cpu.dcache.writebacks::writebacks        43945                       # number of writebacks
system.cpu.dcache.writebacks::total             43945                       # number of writebacks
system.cpu.dcache.ReadReq_mshr_misses::cpu.data        39925                       # number of ReadReq MSHR misses
system.cpu.dcache.ReadReq_mshr_misses::total        39925                       # number of ReadReq MSHR misses
system.cpu.dcache.WriteReq_mshr_misses::cpu.data        15192                       # number of WriteReq MSHR misses
system.cpu.dcache.WriteReq_mshr_misses::total        15192                       # number of WriteReq MSHR misses
system.cpu.dcache.demand_mshr_misses::cpu.data        55117                       # number of demand (read+write) MSHR misses
system.cpu.dcache.demand_mshr_misses::total        55117                       # number of demand (read+write) MSHR misses
system.cpu.dcache.overall_mshr_misses::cpu.data        55117                       # number of overall MSHR misses
system.cpu.dcache.overall_mshr_misses::total        55117                       # number of overall MSHR misses
system.cpu.dcache.ReadReq_mshr_miss_latency::cpu.data   3613664000                       # number of ReadReq MSHR miss cycles
system.cpu.dcache.ReadReq_mshr_miss_latency::total   3613664000                       # number of ReadReq MSHR miss cycles
system.cpu.dcache.WriteReq_mshr_miss_latency::cpu.data   1348251000                       # number of WriteReq MSHR miss cycles
system.cpu.dcache.WriteReq_mshr_miss_latency::total   1348251000                       # number of WriteReq MSHR miss cycles
system.cpu.dcache.demand_mshr_miss_latency::cpu.data   4961915000                       # number of demand (read+write) MSHR miss cycles
system.cpu.dcache.demand_mshr_miss_latency::total   4961915000                       # number of demand (read+write) MSHR miss cycles
system.cpu.dcache.overall_mshr_miss_latency::cpu.data   4961915000                       # number of overall MSHR miss cycles
system.cpu.dcache.overall_mshr_miss_latency::total   4961915000                       # number of overall MSHR miss cycles
system.cpu.dcache.ReadReq_mshr_miss_rate::cpu.data     0.001901                       # mshr miss rate for ReadReq accesses
system.cpu.dcache.ReadReq_mshr_miss_rate::total     0.001901                       # mshr miss rate for ReadReq accesses
system.cpu.dcache.WriteReq_mshr_miss_rate::cpu.data     0.002608                       # mshr miss rate for WriteReq accesses
system.cpu.dcache.WriteReq_mshr_miss_rate::total     0.002608                       # mshr miss rate for WriteReq accesses
system.cpu.dcache.demand_mshr_miss_rate::cpu.data     0.002055                       # mshr miss rate for demand accesses
system.cpu.dcache.demand_mshr_miss_rate::total     0.002055                       # mshr miss rate for demand accesses
system.cpu.dcache.overall_mshr_miss_rate::cpu.data     0.002055                       # mshr miss rate for overall accesses
system.cpu.dcache.overall_mshr_miss_rate::total     0.002055                       # mshr miss rate for overall accesses
system.cpu.dcache.ReadReq_avg_mshr_miss_latency::cpu.data 90511.308704                       # average ReadReq mshr miss latency
system.cpu.dcache.ReadReq_avg_mshr_miss_latency::total 90511.308704                       # average ReadReq mshr miss latency
system.cpu.dcache.WriteReq_avg_mshr_miss_latency::cpu.data 88747.432859                       # average WriteReq mshr miss latency
system.cpu.dcache.WriteReq_avg_mshr_miss_latency::total 88747.432859                       # average WriteReq mshr miss latency
system.cpu.dcache.demand_avg_mshr_miss_latency::cpu.data 90025.128363                       # average overall mshr miss latency
system.cpu.dcache.demand_avg_mshr_miss_latency::total 90025.128363                       # average overall mshr miss latency
system.cpu.dcache.overall_avg_mshr_miss_latency::cpu.data 90025.128363                       # average overall mshr miss latency
system.cpu.dcache.overall_avg_mshr_miss_latency::total 90025.128363                       # average overall mshr miss latency
system.cpu.dcache.replacements                  46501                       # number of replacements
system.cpu.dtb_walker_cache.tags.pwrStateResidencyTicks::UNDEFINED  91430722500                       # Cumulative time (in ticks) in various power states
system.cpu.dtb_walker_cache.tags.tagsinuse            0                       # Cycle average of tags in use
system.cpu.dtb_walker_cache.tags.total_refs            0                       # Total number of references to valid blocks.
system.cpu.dtb_walker_cache.tags.sampled_refs            0                       # Sample count of references to valid blocks.
system.cpu.dtb_walker_cache.tags.avg_refs          nan                       # Average number of references to valid blocks.
system.cpu.dtb_walker_cache.tags.warmup_cycle            0                       # Cycle when the warmup percentage was hit.
system.cpu.dtb_walker_cache.tags.tag_accesses            0                       # Number of tag accesses
system.cpu.dtb_walker_cache.tags.data_accesses            0                       # Number of data accesses
system.cpu.dtb_walker_cache.pwrStateResidencyTicks::UNDEFINED  91430722500                       # Cumulative time (in ticks) in various power states
system.cpu.dtb_walker_cache.blocked_cycles::no_mshrs            0                       # number of cycles access was blocked
system.cpu.dtb_walker_cache.blocked_cycles::no_targets            0                       # number of cycles access was blocked
system.cpu.dtb_walker_cache.blocked::no_mshrs            0                       # number of cycles access was blocked
system.cpu.dtb_walker_cache.blocked::no_targets            0                       # number of cycles access was blocked
system.cpu.dtb_walker_cache.avg_blocked_cycles::no_mshrs          nan                       # average number of cycles each access was blocked
system.cpu.dtb_walker_cache.avg_blocked_cycles::no_targets          nan                       # average number of cycles each access was blocked
system.cpu.dtb_walker_cache.replacements            0                       # number of replacements
system.cpu.icache.tags.pwrStateResidencyTicks::UNDEFINED  91430722500                       # Cumulative time (in ticks) in various power states
system.cpu.icache.tags.tagsinuse           439.195461                       # Cycle average of tags in use
system.cpu.icache.tags.total_refs            59528532                       # Total number of references to valid blocks.
system.cpu.icache.tags.sampled_refs               755                       # Sample count of references to valid blocks.
system.cpu.icache.tags.avg_refs          78845.737748                       # Average number of references to valid blocks.
system.cpu.icache.tags.warmup_cycle            440500                       # Cycle when the warmup percentage was hit.
system.cpu.icache.tags.occ_blocks::cpu.inst   439.195461                       # Average occupied blocks per requestor
system.cpu.icache.tags.occ_percent::cpu.inst     0.857804                       # Average percentage of cache occupancy
system.cpu.icache.tags.occ_percent::total     0.857804                       # Average percentage of cache occupancy
system.cpu.icache.tags.occ_task_id_blocks::1024          450                       # Occupied blocks per task id
system.cpu.icache.tags.age_task_id_blocks_1024::0           22                       # Occupied blocks per task id
system.cpu.icache.tags.age_task_id_blocks_1024::1           38                       # Occupied blocks per task id
system.cpu.icache.tags.age_task_id_blocks_1024::4          390                       # Occupied blocks per task id
system.cpu.icache.tags.occ_task_id_percent::1024     0.878906                       # Percentage of cache occupancy per task id
system.cpu.icache.tags.tag_accesses         119057819                       # Number of tag accesses
system.cpu.icache.tags.data_accesses        119057819                       # Number of data accesses
system.cpu.icache.pwrStateResidencyTicks::UNDEFINED  91430722500                       # Cumulative time (in ticks) in various power states
system.cpu.icache.ReadReq_hits::cpu.inst     59527777                       # number of ReadReq hits
system.cpu.icache.ReadReq_hits::total        59527777                       # number of ReadReq hits
system.cpu.icache.demand_hits::cpu.inst      59527777                       # number of demand (read+write) hits
system.cpu.icache.demand_hits::total         59527777                       # number of demand (read+write) hits
system.cpu.icache.overall_hits::cpu.inst     59527777                       # number of overall hits
system.cpu.icache.overall_hits::total        59527777                       # number of overall hits
system.cpu.icache.ReadReq_misses::cpu.inst          755                       # number of ReadReq misses
system.cpu.icache.ReadReq_misses::total           755                       # number of ReadReq misses
system.cpu.icache.demand_misses::cpu.inst          755                       # number of demand (read+write) misses
system.cpu.icache.demand_misses::total            755                       # number of demand (read+write) misses
system.cpu.icache.overall_misses::cpu.inst          755                       # number of overall misses
system.cpu.icache.overall_misses::total           755                       # number of overall misses
system.cpu.icache.ReadReq_miss_latency::cpu.inst    118165500                       # number of ReadReq miss cycles
system.cpu.icache.ReadReq_miss_latency::total    118165500                       # number of ReadReq miss cycles
system.cpu.icache.demand_miss_latency::cpu.inst    118165500                       # number of demand (read+write) miss cycles
system.cpu.icache.demand_miss_latency::total    118165500                       # number of demand (read+write) miss cycles
system.cpu.icache.overall_miss_latency::cpu.inst    118165500                       # number of overall miss cycles
system.cpu.icache.overall_miss_latency::total    118165500                       # number of overall miss cycles
system.cpu.icache.ReadReq_accesses::cpu.inst     59528532                       # number of ReadReq accesses(hits+misses)
system.cpu.icache.ReadReq_accesses::total     59528532                       # number of ReadReq accesses(hits+misses)
system.cpu.icache.demand_accesses::cpu.inst     59528532                       # number of demand (read+write) accesses
system.cpu.icache.demand_accesses::total     59528532                       # number of demand (read+write) accesses
system.cpu.icache.overall_accesses::cpu.inst     59528532                       # number of overall (read+write) accesses
system.cpu.icache.overall_accesses::total     59528532                       # number of overall (read+write) accesses
system.cpu.icache.ReadReq_miss_rate::cpu.inst     0.000013                       # miss rate for ReadReq accesses
system.cpu.icache.ReadReq_miss_rate::total     0.000013                       # miss rate for ReadReq accesses
system.cpu.icache.demand_miss_rate::cpu.inst     0.000013                       # miss rate for demand accesses
system.cpu.icache.demand_miss_rate::total     0.000013                       # miss rate for demand accesses
system.cpu.icache.overall_miss_rate::cpu.inst     0.000013                       # miss rate for overall accesses
system.cpu.icache.overall_miss_rate::total     0.000013                       # miss rate for overall accesses
system.cpu.icache.ReadReq_avg_miss_latency::cpu.inst 156510.596026                       # average ReadReq miss latency
system.cpu.icache.ReadReq_avg_miss_latency::total 156510.596026                       # average ReadReq miss latency
system.cpu.icache.demand_avg_miss_latency::cpu.inst 156510.596026                       # average overall miss latency
system.cpu.icache.demand_avg_miss_latency::total 156510.596026                       # average overall miss latency
system.cpu.icache.overall_avg_miss_latency::cpu.inst 156510.596026                       # average overall miss latency
system.cpu.icache.overall_avg_miss_latency::total 156510.596026                       # average overall miss latency
system.cpu.icache.blocked_cycles::no_mshrs            0                       # number of cycles access was blocked
system.cpu.icache.blocked_cycles::no_targets            0                       # number of cycles access was blocked
system.cpu.icache.blocked::no_mshrs                 0                       # number of cycles access was blocked
system.cpu.icache.blocked::no_targets               0                       # number of cycles access was blocked
system.cpu.icache.avg_blocked_cycles::no_mshrs          nan                       # average number of cycles each access was blocked
system.cpu.icache.avg_blocked_cycles::no_targets          nan                       # average number of cycles each access was blocked
system.cpu.icache.writebacks::writebacks          305                       # number of writebacks
system.cpu.icache.writebacks::total               305                       # number of writebacks
system.cpu.icache.ReadReq_mshr_misses::cpu.inst          755                       # number of ReadReq MSHR misses
system.cpu.icache.ReadReq_mshr_misses::total          755                       # number of ReadReq MSHR misses
system.cpu.icache.demand_mshr_misses::cpu.inst          755                       # number of demand (read+write) MSHR misses
system.cpu.icache.demand_mshr_misses::total          755                       # number of demand (read+write) MSHR misses
system.cpu.icache.overall_mshr_misses::cpu.inst          755                       # number of overall MSHR misses
system.cpu.icache.overall_mshr_misses::total          755                       # number of overall MSHR misses
system.cpu.icache.ReadReq_mshr_miss_latency::cpu.inst    117410500                       # number of ReadReq MSHR miss cycles
system.cpu.icache.ReadReq_mshr_miss_latency::total    117410500                       # number of ReadReq MSHR miss cycles
system.cpu.icache.demand_mshr_miss_latency::cpu.inst    117410500                       # number of demand (read+write) MSHR miss cycles
system.cpu.icache.demand_mshr_miss_latency::total    117410500                       # number of demand (read+write) MSHR miss cycles
system.cpu.icache.overall_mshr_miss_latency::cpu.inst    117410500                       # number of overall MSHR miss cycles
system.cpu.icache.overall_mshr_miss_latency::total    117410500                       # number of overall MSHR miss cycles
system.cpu.icache.ReadReq_mshr_miss_rate::cpu.inst     0.000013                       # mshr miss rate for ReadReq accesses
system.cpu.icache.ReadReq_mshr_miss_rate::total     0.000013                       # mshr miss rate for ReadReq accesses
system.cpu.icache.demand_mshr_miss_rate::cpu.inst     0.000013                       # mshr miss rate for demand accesses
system.cpu.icache.demand_mshr_miss_rate::total     0.000013                       # mshr miss rate for demand accesses
system.cpu.icache.overall_mshr_miss_rate::cpu.inst     0.000013                       # mshr miss rate for overall accesses
system.cpu.icache.overall_mshr_miss_rate::total     0.000013                       # mshr miss rate for overall accesses
system.cpu.icache.ReadReq_avg_mshr_miss_latency::cpu.inst 155510.596026                       # average ReadReq mshr miss latency
system.cpu.icache.ReadReq_avg_mshr_miss_latency::total 155510.596026                       # average ReadReq mshr miss latency
system.cpu.icache.demand_avg_mshr_miss_latency::cpu.inst 155510.596026                       # average overall mshr miss latency
system.cpu.icache.demand_avg_mshr_miss_latency::total 155510.596026                       # average overall mshr miss latency
system.cpu.icache.overall_avg_mshr_miss_latency::cpu.inst 155510.596026                       # average overall mshr miss latency
system.cpu.icache.overall_avg_mshr_miss_latency::total 155510.596026                       # average overall mshr miss latency
system.cpu.icache.replacements                    305                       # number of replacements
system.cpu.itb_walker_cache.tags.pwrStateResidencyTicks::UNDEFINED  91430722500                       # Cumulative time (in ticks) in various power states
system.cpu.itb_walker_cache.tags.tagsinuse            0                       # Cycle average of tags in use
system.cpu.itb_walker_cache.tags.total_refs            0                       # Total number of references to valid blocks.
system.cpu.itb_walker_cache.tags.sampled_refs            0                       # Sample count of references to valid blocks.
system.cpu.itb_walker_cache.tags.avg_refs          nan                       # Average number of references to valid blocks.
system.cpu.itb_walker_cache.tags.warmup_cycle            0                       # Cycle when the warmup percentage was hit.
system.cpu.itb_walker_cache.tags.tag_accesses            0                       # Number of tag accesses
system.cpu.itb_walker_cache.tags.data_accesses            0                       # Number of data accesses
system.cpu.itb_walker_cache.pwrStateResidencyTicks::UNDEFINED  91430722500                       # Cumulative time (in ticks) in various power states
system.cpu.itb_walker_cache.blocked_cycles::no_mshrs            0                       # number of cycles access was blocked
system.cpu.itb_walker_cache.blocked_cycles::no_targets            0                       # number of cycles access was blocked
system.cpu.itb_walker_cache.blocked::no_mshrs            0                       # number of cycles access was blocked
system.cpu.itb_walker_cache.blocked::no_targets            0                       # number of cycles access was blocked
system.cpu.itb_walker_cache.avg_blocked_cycles::no_mshrs          nan                       # average number of cycles each access was blocked
system.cpu.itb_walker_cache.avg_blocked_cycles::no_targets          nan                       # average number of cycles each access was blocked
system.cpu.itb_walker_cache.replacements            0                       # number of replacements
system.l2.tags.pwrStateResidencyTicks::UNDEFINED  91430722500                       # Cumulative time (in ticks) in various power states
system.l2.tags.tagsinuse                  2043.435819                       # Cycle average of tags in use
system.l2.tags.total_refs                      102649                       # Total number of references to valid blocks.
system.l2.tags.sampled_refs                     26166                       # Sample count of references to valid blocks.
system.l2.tags.avg_refs                      3.922992                       # Average number of references to valid blocks.
system.l2.tags.warmup_cycle                    430000                       # Cycle when the warmup percentage was hit.
system.l2.tags.occ_blocks::writebacks        4.822593                       # Average occupied blocks per requestor
system.l2.tags.occ_blocks::cpu.inst          9.086644                       # Average occupied blocks per requestor
system.l2.tags.occ_blocks::cpu.data       2029.526582                       # Average occupied blocks per requestor
system.l2.tags.occ_percent::writebacks       0.002355                       # Average percentage of cache occupancy
system.l2.tags.occ_percent::cpu.inst         0.004437                       # Average percentage of cache occupancy
system.l2.tags.occ_percent::cpu.data         0.990980                       # Average percentage of cache occupancy
system.l2.tags.occ_percent::total            0.997771                       # Average percentage of cache occupancy
system.l2.tags.occ_task_id_blocks::1024          2048                       # Occupied blocks per task id
system.l2.tags.age_task_id_blocks_1024::0           56                       # Occupied blocks per task id
system.l2.tags.age_task_id_blocks_1024::1          111                       # Occupied blocks per task id
system.l2.tags.age_task_id_blocks_1024::2           33                       # Occupied blocks per task id
system.l2.tags.age_task_id_blocks_1024::3           54                       # Occupied blocks per task id
system.l2.tags.age_task_id_blocks_1024::4         1794                       # Occupied blocks per task id
system.l2.tags.occ_task_id_percent::1024            1                       # Percentage of cache occupancy per task id
system.l2.tags.tag_accesses                    847582                       # Number of tag accesses
system.l2.tags.data_accesses                   847582                       # Number of data accesses
system.l2.pwrStateResidencyTicks::UNDEFINED  91430722500                       # Cumulative time (in ticks) in various power states
system.l2.WritebackDirty_hits::writebacks        43945                       # number of WritebackDirty hits
system.l2.WritebackDirty_hits::total            43945                       # number of WritebackDirty hits
system.l2.WritebackClean_hits::writebacks          305                       # number of WritebackClean hits
system.l2.WritebackClean_hits::total              305                       # number of WritebackClean hits
system.l2.UpgradeReq_hits::cpu.data              8104                       # number of UpgradeReq hits
system.l2.UpgradeReq_hits::total                 8104                       # number of UpgradeReq hits
system.l2.ReadExReq_hits::cpu.data                275                       # number of ReadExReq hits
system.l2.ReadExReq_hits::total                   275                       # number of ReadExReq hits
system.l2.ReadCleanReq_hits::cpu.inst              16                       # number of ReadCleanReq hits
system.l2.ReadCleanReq_hits::total                 16                       # number of ReadCleanReq hits
system.l2.ReadSharedReq_hits::cpu.data          21495                       # number of ReadSharedReq hits
system.l2.ReadSharedReq_hits::total             21495                       # number of ReadSharedReq hits
system.l2.demand_hits::cpu.inst                    16                       # number of demand (read+write) hits
system.l2.demand_hits::cpu.data                 21770                       # number of demand (read+write) hits
system.l2.demand_hits::total                    21786                       # number of demand (read+write) hits
system.l2.overall_hits::cpu.inst                   16                       # number of overall hits
system.l2.overall_hits::cpu.data                21770                       # number of overall hits
system.l2.overall_hits::total                   21786                       # number of overall hits
system.l2.ReadExReq_misses::cpu.data             6813                       # number of ReadExReq misses
system.l2.ReadExReq_misses::total                6813                       # number of ReadExReq misses
system.l2.ReadCleanReq_misses::cpu.inst           739                       # number of ReadCleanReq misses
system.l2.ReadCleanReq_misses::total              739                       # number of ReadCleanReq misses
system.l2.ReadSharedReq_misses::cpu.data        18430                       # number of ReadSharedReq misses
system.l2.ReadSharedReq_misses::total           18430                       # number of ReadSharedReq misses
system.l2.demand_misses::cpu.inst                 739                       # number of demand (read+write) misses
system.l2.demand_misses::cpu.data               25243                       # number of demand (read+write) misses
system.l2.demand_misses::total                  25982                       # number of demand (read+write) misses
system.l2.overall_misses::cpu.inst                739                       # number of overall misses
system.l2.overall_misses::cpu.data              25243                       # number of overall misses
system.l2.overall_misses::total                 25982                       # number of overall misses
system.l2.ReadExReq_miss_latency::cpu.data   1237481000                       # number of ReadExReq miss cycles
system.l2.ReadExReq_miss_latency::total    1237481000                       # number of ReadExReq miss cycles
system.l2.ReadCleanReq_miss_latency::cpu.inst    116106000                       # number of ReadCleanReq miss cycles
system.l2.ReadCleanReq_miss_latency::total    116106000                       # number of ReadCleanReq miss cycles
system.l2.ReadSharedReq_miss_latency::cpu.data   3328070500                       # number of ReadSharedReq miss cycles
system.l2.ReadSharedReq_miss_latency::total   3328070500                       # number of ReadSharedReq miss cycles
system.l2.demand_miss_latency::cpu.inst     116106000                       # number of demand (read+write) miss cycles
system.l2.demand_miss_latency::cpu.data    4565551500                       # number of demand (read+write) miss cycles
system.l2.demand_miss_latency::total       4681657500                       # number of demand (read+write) miss cycles
system.l2.overall_miss_latency::cpu.inst    116106000                       # number of overall miss cycles
system.l2.overall_miss_latency::cpu.data   4565551500                       # number of overall miss cycles
system.l2.overall_miss_latency::total      4681657500                       # number of overall miss cycles
system.l2.WritebackDirty_accesses::writebacks        43945                       # number of WritebackDirty accesses(hits+misses)
system.l2.WritebackDirty_accesses::total        43945                       # number of WritebackDirty accesses(hits+misses)
system.l2.WritebackClean_accesses::writebacks          305                       # number of WritebackClean accesses(hits+misses)
system.l2.WritebackClean_accesses::total          305                       # number of WritebackClean accesses(hits+misses)
system.l2.UpgradeReq_accesses::cpu.data          8104                       # number of UpgradeReq accesses(hits+misses)
system.l2.UpgradeReq_accesses::total             8104                       # number of UpgradeReq accesses(hits+misses)
system.l2.ReadExReq_accesses::cpu.data           7088                       # number of ReadExReq accesses(hits+misses)
system.l2.ReadExReq_accesses::total              7088                       # number of ReadExReq accesses(hits+misses)
system.l2.ReadCleanReq_accesses::cpu.inst          755                       # number of ReadCleanReq accesses(hits+misses)
system.l2.ReadCleanReq_accesses::total            755                       # number of ReadCleanReq accesses(hits+misses)
system.l2.ReadSharedReq_accesses::cpu.data        39925                       # number of ReadSharedReq accesses(hits+misses)
system.l2.ReadSharedReq_accesses::total         39925                       # number of ReadSharedReq accesses(hits+misses)
system.l2.demand_accesses::cpu.inst               755                       # number of demand (read+write) accesses
system.l2.demand_accesses::cpu.data             47013                       # number of demand (read+write) accesses
system.l2.demand_accesses::total                47768                       # number of demand (read+write) accesses
system.l2.overall_accesses::cpu.inst              755                       # number of overall (read+write) accesses
system.l2.overall_accesses::cpu.data            47013                       # number of overall (read+write) accesses
system.l2.overall_accesses::total               47768                       # number of overall (read+write) accesses
system.l2.ReadExReq_miss_rate::cpu.data      0.961202                       # miss rate for ReadExReq accesses
system.l2.ReadExReq_miss_rate::total         0.961202                       # miss rate for ReadExReq accesses
system.l2.ReadCleanReq_miss_rate::cpu.inst     0.978808                       # miss rate for ReadCleanReq accesses
system.l2.ReadCleanReq_miss_rate::total      0.978808                       # miss rate for ReadCleanReq accesses
system.l2.ReadSharedReq_miss_rate::cpu.data     0.461616                       # miss rate for ReadSharedReq accesses
system.l2.ReadSharedReq_miss_rate::total     0.461616                       # miss rate for ReadSharedReq accesses
system.l2.demand_miss_rate::cpu.inst         0.978808                       # miss rate for demand accesses
system.l2.demand_miss_rate::cpu.data         0.536937                       # miss rate for demand accesses
system.l2.demand_miss_rate::total            0.543921                       # miss rate for demand accesses
system.l2.overall_miss_rate::cpu.inst        0.978808                       # miss rate for overall accesses
system.l2.overall_miss_rate::cpu.data        0.536937                       # miss rate for overall accesses
system.l2.overall_miss_rate::total           0.543921                       # miss rate for overall accesses
system.l2.ReadExReq_avg_miss_latency::cpu.data 181635.256128                       # average ReadExReq miss latency
system.l2.ReadExReq_avg_miss_latency::total 181635.256128                       # average ReadExReq miss latency
system.l2.ReadCleanReq_avg_miss_latency::cpu.inst 157112.313938                       # average ReadCleanReq miss latency
system.l2.ReadCleanReq_avg_miss_latency::total 157112.313938                       # average ReadCleanReq miss latency
system.l2.ReadSharedReq_avg_miss_latency::cpu.data 180578.974498                       # average ReadSharedReq miss latency
system.l2.ReadSharedReq_avg_miss_latency::total 180578.974498                       # average ReadSharedReq miss latency
system.l2.demand_avg_miss_latency::cpu.inst 157112.313938                       # average overall miss latency
system.l2.demand_avg_miss_latency::cpu.data 180864.061324                       # average overall miss latency
system.l2.demand_avg_miss_latency::total 180188.495882                       # average overall miss latency
system.l2.overall_avg_miss_latency::cpu.inst 157112.313938                       # average overall miss latency
system.l2.overall_avg_miss_latency::cpu.data 180864.061324                       # average overall miss latency
system.l2.overall_avg_miss_latency::total 180188.495882                       # average overall miss latency
system.l2.blocked_cycles::no_mshrs                  0                       # number of cycles access was blocked
system.l2.blocked_cycles::no_targets                0                       # number of cycles access was blocked
system.l2.blocked::no_mshrs                         0                       # number of cycles access was blocked
system.l2.blocked::no_targets                       0                       # number of cycles access was blocked
system.l2.avg_blocked_cycles::no_mshrs            nan                       # average number of cycles each access was blocked
system.l2.avg_blocked_cycles::no_targets          nan                       # average number of cycles each access was blocked
system.l2.writebacks::writebacks                22135                       # number of writebacks
system.l2.writebacks::total                     22135                       # number of writebacks
system.l2.CleanEvict_mshr_misses::writebacks           28                       # number of CleanEvict MSHR misses
system.l2.CleanEvict_mshr_misses::total            28                       # number of CleanEvict MSHR misses
system.l2.ReadExReq_mshr_misses::cpu.data         6813                       # number of ReadExReq MSHR misses
system.l2.ReadExReq_mshr_misses::total           6813                       # number of ReadExReq MSHR misses
system.l2.ReadCleanReq_mshr_misses::cpu.inst          739                       # number of ReadCleanReq MSHR misses
system.l2.ReadCleanReq_mshr_misses::total          739                       # number of ReadCleanReq MSHR misses
system.l2.ReadSharedReq_mshr_misses::cpu.data        18430                       # number of ReadSharedReq MSHR misses
system.l2.ReadSharedReq_mshr_misses::total        18430                       # number of ReadSharedReq MSHR misses
system.l2.demand_mshr_misses::cpu.inst            739                       # number of demand (read+write) MSHR misses
system.l2.demand_mshr_misses::cpu.data          25243                       # number of demand (read+write) MSHR misses
system.l2.demand_mshr_misses::total             25982                       # number of demand (read+write) MSHR misses
system.l2.overall_mshr_misses::cpu.inst           739                       # number of overall MSHR misses
system.l2.overall_mshr_misses::cpu.data         25243                       # number of overall MSHR misses
system.l2.overall_mshr_misses::total            25982                       # number of overall MSHR misses
system.l2.ReadExReq_mshr_miss_latency::cpu.data   1169351000                       # number of ReadExReq MSHR miss cycles
system.l2.ReadExReq_mshr_miss_latency::total   1169351000                       # number of ReadExReq MSHR miss cycles
system.l2.ReadCleanReq_mshr_miss_latency::cpu.inst    108716000                       # number of ReadCleanReq MSHR miss cycles
system.l2.ReadCleanReq_mshr_miss_latency::total    108716000                       # number of ReadCleanReq MSHR miss cycles
system.l2.ReadSharedReq_mshr_miss_latency::cpu.data   3143770500                       # number of ReadSharedReq MSHR miss cycles
system.l2.ReadSharedReq_mshr_miss_latency::total   3143770500                       # number of ReadSharedReq MSHR miss cycles
system.l2.demand_mshr_miss_latency::cpu.inst    108716000                       # number of demand (read+write) MSHR miss cycles
system.l2.demand_mshr_miss_latency::cpu.data   4313121500                       # number of demand (read+write) MSHR miss cycles
system.l2.demand_mshr_miss_latency::total   4421837500                       # number of demand (read+write) MSHR miss cycles
system.l2.overall_mshr_miss_latency::cpu.inst    108716000                       # number of overall MSHR miss cycles
system.l2.overall_mshr_miss_latency::cpu.data   4313121500                       # number of overall MSHR miss cycles
system.l2.overall_mshr_miss_latency::total   4421837500                       # number of overall MSHR miss cycles
system.l2.CleanEvict_mshr_miss_rate::writebacks          inf                       # mshr miss rate for CleanEvict accesses
system.l2.CleanEvict_mshr_miss_rate::total          inf                       # mshr miss rate for CleanEvict accesses
system.l2.ReadExReq_mshr_miss_rate::cpu.data     0.961202                       # mshr miss rate for ReadExReq accesses
system.l2.ReadExReq_mshr_miss_rate::total     0.961202                       # mshr miss rate for ReadExReq accesses
system.l2.ReadCleanReq_mshr_miss_rate::cpu.inst     0.978808                       # mshr miss rate for ReadCleanReq accesses
system.l2.ReadCleanReq_mshr_miss_rate::total     0.978808                       # mshr miss rate for ReadCleanReq accesses
system.l2.ReadSharedReq_mshr_miss_rate::cpu.data     0.461616                       # mshr miss rate for ReadSharedReq accesses
system.l2.ReadSharedReq_mshr_miss_rate::total     0.461616                       # mshr miss rate for ReadSharedReq accesses
system.l2.demand_mshr_miss_rate::cpu.inst     0.978808                       # mshr miss rate for demand accesses
system.l2.demand_mshr_miss_rate::cpu.data     0.536937                       # mshr miss rate for demand accesses
system.l2.demand_mshr_miss_rate::total       0.543921                       # mshr miss rate for demand accesses
system.l2.overall_mshr_miss_rate::cpu.inst     0.978808                       # mshr miss rate for overall accesses
system.l2.overall_mshr_miss_rate::cpu.data     0.536937                       # mshr miss rate for overall accesses
system.l2.overall_mshr_miss_rate::total      0.543921                       # mshr miss rate for overall accesses
system.l2.ReadExReq_avg_mshr_miss_latency::cpu.data 171635.256128                       # average ReadExReq mshr miss latency
system.l2.ReadExReq_avg_mshr_miss_latency::total 171635.256128                       # average ReadExReq mshr miss latency
system.l2.ReadCleanReq_avg_mshr_miss_latency::cpu.inst 147112.313938                       # average ReadCleanReq mshr miss latency
system.l2.ReadCleanReq_avg_mshr_miss_latency::total 147112.313938                       # average ReadCleanReq mshr miss latency
system.l2.ReadSharedReq_avg_mshr_miss_latency::cpu.data 170578.974498                       # average ReadSharedReq mshr miss latency
system.l2.ReadSharedReq_avg_mshr_miss_latency::total 170578.974498                       # average ReadSharedReq mshr miss latency
system.l2.demand_avg_mshr_miss_latency::cpu.inst 147112.313938                       # average overall mshr miss latency
system.l2.demand_avg_mshr_miss_latency::cpu.data 170864.061324                       # average overall mshr miss latency
system.l2.demand_avg_mshr_miss_latency::total 170188.495882                       # average overall mshr miss latency
system.l2.overall_avg_mshr_miss_latency::cpu.inst 147112.313938                       # average overall mshr miss latency
system.l2.overall_avg_mshr_miss_latency::cpu.data 170864.061324                       # average overall mshr miss latency
system.l2.overall_avg_mshr_miss_latency::total 170188.495882                       # average overall mshr miss latency
system.l2.replacements                          24118                       # number of replacements
system.l3.tags.pwrStateResidencyTicks::UNDEFINED  91430722500                       # Cumulative time (in ticks) in various power states
system.l3.tags.tagsinuse                  4006.552137                       # Cycle average of tags in use
system.l3.tags.total_refs                       49066                       # Total number of references to valid blocks.
system.l3.tags.sampled_refs                     27841                       # Sample count of references to valid blocks.
system.l3.tags.avg_refs                      1.762365                       # Average number of references to valid blocks.
system.l3.tags.warmup_cycle                    418000                       # Cycle when the warmup percentage was hit.
system.l3.tags.occ_blocks::writebacks     1073.750055                       # Average occupied blocks per requestor
system.l3.tags.occ_blocks::cpu.inst         53.095119                       # Average occupied blocks per requestor
system.l3.tags.occ_blocks::cpu.data       2879.706963                       # Average occupied blocks per requestor
system.l3.tags.occ_percent::writebacks       0.262146                       # Average percentage of cache occupancy
system.l3.tags.occ_percent::cpu.inst         0.012963                       # Average percentage of cache occupancy
system.l3.tags.occ_percent::cpu.data         0.703053                       # Average percentage of cache occupancy
system.l3.tags.occ_percent::total            0.978162                       # Average percentage of cache occupancy
system.l3.tags.occ_task_id_blocks::1024          4096                       # Occupied blocks per task id
system.l3.tags.age_task_id_blocks_1024::0           41                       # Occupied blocks per task id
system.l3.tags.age_task_id_blocks_1024::1           72                       # Occupied blocks per task id
system.l3.tags.age_task_id_blocks_1024::3            3                       # Occupied blocks per task id
system.l3.tags.age_task_id_blocks_1024::4         3980                       # Occupied blocks per task id
system.l3.tags.occ_task_id_percent::1024            1                       # Percentage of cache occupancy per task id
system.l3.tags.tag_accesses                    126887                       # Number of tag accesses
system.l3.tags.data_accesses                   126887                       # Number of data accesses
system.l3.pwrStateResidencyTicks::UNDEFINED  91430722500                       # Cumulative time (in ticks) in various power states
system.l3.WritebackDirty_hits::writebacks        22135                       # number of WritebackDirty hits
system.l3.WritebackDirty_hits::total            22135                       # number of WritebackDirty hits
system.l3.ReadExReq_hits::cpu.data                 59                       # number of ReadExReq hits
system.l3.ReadExReq_hits::total                    59                       # number of ReadExReq hits
system.l3.ReadSharedReq_hits::cpu.inst              3                       # number of ReadSharedReq hits
system.l3.ReadSharedReq_hits::cpu.data           9051                       # number of ReadSharedReq hits
system.l3.ReadSharedReq_hits::total              9054                       # number of ReadSharedReq hits
system.l3.demand_hits::cpu.inst                     3                       # number of demand (read+write) hits
system.l3.demand_hits::cpu.data                  9110                       # number of demand (read+write) hits
system.l3.demand_hits::total                     9113                       # number of demand (read+write) hits
system.l3.overall_hits::cpu.inst                    3                       # number of overall hits
system.l3.overall_hits::cpu.data                 9110                       # number of overall hits
system.l3.overall_hits::total                    9113                       # number of overall hits
system.l3.ReadExReq_misses::cpu.data             6754                       # number of ReadExReq misses
system.l3.ReadExReq_misses::total                6754                       # number of ReadExReq misses
system.l3.ReadSharedReq_misses::cpu.inst          736                       # number of ReadSharedReq misses
system.l3.ReadSharedReq_misses::cpu.data         9379                       # number of ReadSharedReq misses
system.l3.ReadSharedReq_misses::total           10115                       # number of ReadSharedReq misses
system.l3.demand_misses::cpu.inst                 736                       # number of demand (read+write) misses
system.l3.demand_misses::cpu.data               16133                       # number of demand (read+write) misses
system.l3.demand_misses::total                  16869                       # number of demand (read+write) misses
system.l3.overall_misses::cpu.inst                736                       # number of overall misses
system.l3.overall_misses::cpu.data              16133                       # number of overall misses
system.l3.overall_misses::total                 16869                       # number of overall misses
system.l3.ReadExReq_miss_latency::cpu.data   1083451000                       # number of ReadExReq miss cycles
system.l3.ReadExReq_miss_latency::total    1083451000                       # number of ReadExReq miss cycles
system.l3.ReadSharedReq_miss_latency::cpu.inst     99441000                       # number of ReadSharedReq miss cycles
system.l3.ReadSharedReq_miss_latency::cpu.data   2792574000                       # number of ReadSharedReq miss cycles
system.l3.ReadSharedReq_miss_latency::total   2892015000                       # number of ReadSharedReq miss cycles
system.l3.demand_miss_latency::cpu.inst      99441000                       # number of demand (read+write) miss cycles
system.l3.demand_miss_latency::cpu.data    3876025000                       # number of demand (read+write) miss cycles
system.l3.demand_miss_latency::total       3975466000                       # number of demand (read+write) miss cycles
system.l3.overall_miss_latency::cpu.inst     99441000                       # number of overall miss cycles
system.l3.overall_miss_latency::cpu.data   3876025000                       # number of overall miss cycles
system.l3.overall_miss_latency::total      3975466000                       # number of overall miss cycles
system.l3.WritebackDirty_accesses::writebacks        22135                       # number of WritebackDirty accesses(hits+misses)
system.l3.WritebackDirty_accesses::total        22135                       # number of WritebackDirty accesses(hits+misses)
system.l3.ReadExReq_accesses::cpu.data           6813                       # number of ReadExReq accesses(hits+misses)
system.l3.ReadExReq_accesses::total              6813                       # number of ReadExReq accesses(hits+misses)
system.l3.ReadSharedReq_accesses::cpu.inst          739                       # number of ReadSharedReq accesses(hits+misses)
system.l3.ReadSharedReq_accesses::cpu.data        18430                       # number of ReadSharedReq accesses(hits+misses)
system.l3.ReadSharedReq_accesses::total         19169                       # number of ReadSharedReq accesses(hits+misses)
system.l3.demand_accesses::cpu.inst               739                       # number of demand (read+write) accesses
system.l3.demand_accesses::cpu.data             25243                       # number of demand (read+write) accesses
system.l3.demand_accesses::total                25982                       # number of demand (read+write) accesses
system.l3.overall_accesses::cpu.inst              739                       # number of overall (read+write) accesses
system.l3.overall_accesses::cpu.data            25243                       # number of overall (read+write) accesses
system.l3.overall_accesses::total               25982                       # number of overall (read+write) accesses
system.l3.ReadExReq_miss_rate::cpu.data      0.991340                       # miss rate for ReadExReq accesses
system.l3.ReadExReq_miss_rate::total         0.991340                       # miss rate for ReadExReq accesses
system.l3.ReadSharedReq_miss_rate::cpu.inst     0.995940                       # miss rate for ReadSharedReq accesses
system.l3.ReadSharedReq_miss_rate::cpu.data     0.508899                       # miss rate for ReadSharedReq accesses
system.l3.ReadSharedReq_miss_rate::total     0.527675                       # miss rate for ReadSharedReq accesses
system.l3.demand_miss_rate::cpu.inst         0.995940                       # miss rate for demand accesses
system.l3.demand_miss_rate::cpu.data         0.639108                       # miss rate for demand accesses
system.l3.demand_miss_rate::total            0.649257                       # miss rate for demand accesses
system.l3.overall_miss_rate::cpu.inst        0.995940                       # miss rate for overall accesses
system.l3.overall_miss_rate::cpu.data        0.639108                       # miss rate for overall accesses
system.l3.overall_miss_rate::total           0.649257                       # miss rate for overall accesses
system.l3.ReadExReq_avg_miss_latency::cpu.data 160416.197809                       # average ReadExReq miss latency
system.l3.ReadExReq_avg_miss_latency::total 160416.197809                       # average ReadExReq miss latency
system.l3.ReadSharedReq_avg_miss_latency::cpu.inst 135110.054348                       # average ReadSharedReq miss latency
system.l3.ReadSharedReq_avg_miss_latency::cpu.data 297747.521058                       # average ReadSharedReq miss latency
system.l3.ReadSharedReq_avg_miss_latency::total 285913.494810                       # average ReadSharedReq miss latency
system.l3.demand_avg_miss_latency::cpu.inst 135110.054348                       # average overall miss latency
system.l3.demand_avg_miss_latency::cpu.data 240254.447406                       # average overall miss latency
system.l3.demand_avg_miss_latency::total 235666.963068                       # average overall miss latency
system.l3.overall_avg_miss_latency::cpu.inst 135110.054348                       # average overall miss latency
system.l3.overall_avg_miss_latency::cpu.data 240254.447406                       # average overall miss latency
system.l3.overall_avg_miss_latency::total 235666.963068                       # average overall miss latency
system.l3.blocked_cycles::no_mshrs                  0                       # number of cycles access was blocked
system.l3.blocked_cycles::no_targets                0                       # number of cycles access was blocked
system.l3.blocked::no_mshrs                         0                       # number of cycles access was blocked
system.l3.blocked::no_targets                       0                       # number of cycles access was blocked
system.l3.avg_blocked_cycles::no_mshrs            nan                       # average number of cycles each access was blocked
system.l3.avg_blocked_cycles::no_targets          nan                       # average number of cycles each access was blocked
system.l3.writebacks::writebacks                10075                       # number of writebacks
system.l3.writebacks::total                     10075                       # number of writebacks
system.l3.CleanEvict_mshr_misses::writebacks          457                       # number of CleanEvict MSHR misses
system.l3.CleanEvict_mshr_misses::total           457                       # number of CleanEvict MSHR misses
system.l3.ReadExReq_mshr_misses::cpu.data         6754                       # number of ReadExReq MSHR misses
system.l3.ReadExReq_mshr_misses::total           6754                       # number of ReadExReq MSHR misses
system.l3.ReadSharedReq_mshr_misses::cpu.inst          736                       # number of ReadSharedReq MSHR misses
system.l3.ReadSharedReq_mshr_misses::cpu.data         9379                       # number of ReadSharedReq MSHR misses
system.l3.ReadSharedReq_mshr_misses::total        10115                       # number of ReadSharedReq MSHR misses
system.l3.demand_mshr_misses::cpu.inst            736                       # number of demand (read+write) MSHR misses
system.l3.demand_mshr_misses::cpu.data          16133                       # number of demand (read+write) MSHR misses
system.l3.demand_mshr_misses::total             16869                       # number of demand (read+write) MSHR misses
system.l3.overall_mshr_misses::cpu.inst           736                       # number of overall MSHR misses
system.l3.overall_mshr_misses::cpu.data         16133                       # number of overall MSHR misses
system.l3.overall_mshr_misses::total            16869                       # number of overall MSHR misses
system.l3.ReadExReq_mshr_miss_latency::cpu.data   1015911000                       # number of ReadExReq MSHR miss cycles
system.l3.ReadExReq_mshr_miss_latency::total   1015911000                       # number of ReadExReq MSHR miss cycles
system.l3.ReadSharedReq_mshr_miss_latency::cpu.inst     92081000                       # number of ReadSharedReq MSHR miss cycles
system.l3.ReadSharedReq_mshr_miss_latency::cpu.data   2698784000                       # number of ReadSharedReq MSHR miss cycles
system.l3.ReadSharedReq_mshr_miss_latency::total   2790865000                       # number of ReadSharedReq MSHR miss cycles
system.l3.demand_mshr_miss_latency::cpu.inst     92081000                       # number of demand (read+write) MSHR miss cycles
system.l3.demand_mshr_miss_latency::cpu.data   3714695000                       # number of demand (read+write) MSHR miss cycles
system.l3.demand_mshr_miss_latency::total   3806776000                       # number of demand (read+write) MSHR miss cycles
system.l3.overall_mshr_miss_latency::cpu.inst     92081000                       # number of overall MSHR miss cycles
system.l3.overall_mshr_miss_latency::cpu.data   3714695000                       # number of overall MSHR miss cycles
system.l3.overall_mshr_miss_latency::total   3806776000                       # number of overall MSHR miss cycles
system.l3.CleanEvict_mshr_miss_rate::writebacks          inf                       # mshr miss rate for CleanEvict accesses
system.l3.CleanEvict_mshr_miss_rate::total          inf                       # mshr miss rate for CleanEvict accesses
system.l3.ReadExReq_mshr_miss_rate::cpu.data     0.991340                       # mshr miss rate for ReadExReq accesses
system.l3.ReadExReq_mshr_miss_rate::total     0.991340                       # mshr miss rate for ReadExReq accesses
system.l3.ReadSharedReq_mshr_miss_rate::cpu.inst     0.995940                       # mshr miss rate for ReadSharedReq accesses
system.l3.ReadSharedReq_mshr_miss_rate::cpu.data     0.508899                       # mshr miss rate for ReadSharedReq accesses
system.l3.ReadSharedReq_mshr_miss_rate::total     0.527675                       # mshr miss rate for ReadSharedReq accesses
system.l3.demand_mshr_miss_rate::cpu.inst     0.995940                       # mshr miss rate for demand accesses
system.l3.demand_mshr_miss_rate::cpu.data     0.639108                       # mshr miss rate for demand accesses
system.l3.demand_mshr_miss_rate::total       0.649257                       # mshr miss rate for demand accesses
system.l3.overall_mshr_miss_rate::cpu.inst     0.995940                       # mshr miss rate for overall accesses
system.l3.overall_mshr_miss_rate::cpu.data     0.639108                       # mshr miss rate for overall accesses
system.l3.overall_mshr_miss_rate::total      0.649257                       # mshr miss rate for overall accesses
system.l3.ReadExReq_avg_mshr_miss_latency::cpu.data 150416.197809                       # average ReadExReq mshr miss latency
system.l3.ReadExReq_avg_mshr_miss_latency::total 150416.197809                       # average ReadExReq mshr miss latency
system.l3.ReadSharedReq_avg_mshr_miss_latency::cpu.inst 125110.054348                       # average ReadSharedReq mshr miss latency
system.l3.ReadSharedReq_avg_mshr_miss_latency::cpu.data 287747.521058                       # average ReadSharedReq mshr miss latency
system.l3.ReadSharedReq_avg_mshr_miss_latency::total 275913.494810                       # average ReadSharedReq mshr miss latency
system.l3.demand_avg_mshr_miss_latency::cpu.inst 125110.054348                       # average overall mshr miss latency
system.l3.demand_avg_mshr_miss_latency::cpu.data 230254.447406                       # average overall mshr miss latency
system.l3.demand_avg_mshr_miss_latency::total 225666.963068                       # average overall mshr miss latency
system.l3.overall_avg_mshr_miss_latency::cpu.inst 125110.054348                       # average overall mshr miss latency
system.l3.overall_avg_mshr_miss_latency::cpu.data 230254.447406                       # average overall mshr miss latency
system.l3.overall_avg_mshr_miss_latency::total 225666.963068                       # average overall mshr miss latency
system.l3.replacements                          23745                       # number of replacements
system.membus.snoop_filter.tot_requests         30440                       # Total number of requests made to the snoop filter.
system.membus.snoop_filter.hit_single_requests        13571                       # Number of requests hitting in the snoop filter with a single holder of the requested data.
system.membus.snoop_filter.hit_multi_requests            0                       # Number of requests hitting in the snoop filter with multiple (>1) holders of the requested data.
system.membus.snoop_filter.tot_snoops               0                       # Total number of snoops made to the snoop filter.
system.membus.snoop_filter.hit_single_snoops            0                       # Number of snoops hitting in the snoop filter with a single holder of the requested data.
system.membus.snoop_filter.hit_multi_snoops            0                       # Number of snoops hitting in the snoop filter with multiple (>1) holders of the requested data.
system.membus.pwrStateResidencyTicks::UNDEFINED  91430722500                       # Cumulative time (in ticks) in various power states
system.membus.trans_dist::ReadResp              10115                       # Transaction distribution
system.membus.trans_dist::WritebackDirty        10075                       # Transaction distribution
system.membus.trans_dist::CleanEvict             1350                       # Transaction distribution
system.membus.trans_dist::ReadExReq              6754                       # Transaction distribution
system.membus.trans_dist::ReadExResp             6754                       # Transaction distribution
system.membus.trans_dist::ReadSharedReq         10115                       # Transaction distribution
system.membus.pkt_count_system.l3.mem_side::system.mem_ctrls.port        45163                       # Packet count per connected master and slave (bytes)
system.membus.pkt_count_system.l3.mem_side::total        45163                       # Packet count per connected master and slave (bytes)
system.membus.pkt_count::total                  45163                       # Packet count per connected master and slave (bytes)
system.membus.pkt_size_system.l3.mem_side::system.mem_ctrls.port      1724416                       # Cumulative packet size per connected master and slave (bytes)
system.membus.pkt_size_system.l3.mem_side::total      1724416                       # Cumulative packet size per connected master and slave (bytes)
system.membus.pkt_size::total                 1724416                       # Cumulative packet size per connected master and slave (bytes)
system.membus.snoops                                0                       # Total snoops (count)
system.membus.snoopTraffic                          0                       # Total snoop traffic (bytes)
system.membus.snoop_fanout::samples             16869                       # Request fanout histogram
system.membus.snoop_fanout::mean                    0                       # Request fanout histogram
system.membus.snoop_fanout::stdev                   0                       # Request fanout histogram
system.membus.snoop_fanout::underflows              0      0.00%      0.00% # Request fanout histogram
system.membus.snoop_fanout::0                   16869    100.00%    100.00% # Request fanout histogram
system.membus.snoop_fanout::1                       0      0.00%    100.00% # Request fanout histogram
system.membus.snoop_fanout::overflows               0      0.00%    100.00% # Request fanout histogram
system.membus.snoop_fanout::min_value               0                       # Request fanout histogram
system.membus.snoop_fanout::max_value               0                       # Request fanout histogram
system.membus.snoop_fanout::total               16869                       # Request fanout histogram
system.membus.reqLayer2.occupancy            80212500                       # Layer occupancy (ticks)
system.membus.reqLayer2.utilization               0.1                       # Layer utilization (%)
system.membus.respLayer1.occupancy           92058000                       # Layer occupancy (ticks)
system.membus.respLayer1.utilization              0.1                       # Layer utilization (%)
system.tol2bus.snoop_filter.tot_requests       102678                       # Total number of requests made to the snoop filter.
system.tol2bus.snoop_filter.hit_single_requests        54910                       # Number of requests hitting in the snoop filter with a single holder of the requested data.
system.tol2bus.snoop_filter.hit_multi_requests            1                       # Number of requests hitting in the snoop filter with multiple (>1) holders of the requested data.
system.tol2bus.snoop_filter.tot_snoops           6934                       # Total number of snoops made to the snoop filter.
system.tol2bus.snoop_filter.hit_single_snoops         6934                       # Number of snoops hitting in the snoop filter with a single holder of the requested data.
system.tol2bus.snoop_filter.hit_multi_snoops            0                       # Number of snoops hitting in the snoop filter with multiple (>1) holders of the requested data.
system.tol2bus.pwrStateResidencyTicks::UNDEFINED  91430722500                       # Cumulative time (in ticks) in various power states
system.tol2bus.trans_dist::ReadResp             40680                       # Transaction distribution
system.tol2bus.trans_dist::WritebackDirty        76155                       # Transaction distribution
system.tol2bus.trans_dist::WritebackClean          305                       # Transaction distribution
system.tol2bus.trans_dist::CleanEvict           18209                       # Transaction distribution
system.tol2bus.trans_dist::UpgradeReq            8104                       # Transaction distribution
system.tol2bus.trans_dist::UpgradeResp           8104                       # Transaction distribution
system.tol2bus.trans_dist::ReadExReq             7088                       # Transaction distribution
system.tol2bus.trans_dist::ReadExResp            7088                       # Transaction distribution
system.tol2bus.trans_dist::ReadCleanReq           755                       # Transaction distribution
system.tol2bus.trans_dist::ReadSharedReq        39925                       # Transaction distribution
system.tol2bus.pkt_count_system.cpu.icache.mem_side::system.l2.cpu_side         1815                       # Packet count per connected master and slave (bytes)
system.tol2bus.pkt_count_system.cpu.dcache.mem_side::system.l2.cpu_side       156735                       # Packet count per connected master and slave (bytes)
system.tol2bus.pkt_count::total                158550                       # Packet count per connected master and slave (bytes)
system.tol2bus.pkt_size_system.cpu.icache.mem_side::system.l2.cpu_side        67840                       # Cumulative packet size per connected master and slave (bytes)
system.tol2bus.pkt_size_system.cpu.dcache.mem_side::system.l2.cpu_side      5821312                       # Cumulative packet size per connected master and slave (bytes)
system.tol2bus.pkt_size::total                5889152                       # Cumulative packet size per connected master and slave (bytes)
system.tol2bus.snoops                           47863                       # Total snoops (count)
system.tol2bus.snoopTraffic                   2061440                       # Total snoop traffic (bytes)
system.tol2bus.snoop_fanout::samples           103735                       # Request fanout histogram
system.tol2bus.snoop_fanout::mean            0.066853                       # Request fanout histogram
system.tol2bus.snoop_fanout::stdev           0.249769                       # Request fanout histogram
system.tol2bus.snoop_fanout::underflows             0      0.00%      0.00% # Request fanout histogram
system.tol2bus.snoop_fanout::0                  96800     93.31%     93.31% # Request fanout histogram
system.tol2bus.snoop_fanout::1                   6935      6.69%    100.00% # Request fanout histogram
system.tol2bus.snoop_fanout::2                      0      0.00%    100.00% # Request fanout histogram
system.tol2bus.snoop_fanout::3                      0      0.00%    100.00% # Request fanout histogram
system.tol2bus.snoop_fanout::4                      0      0.00%    100.00% # Request fanout histogram
system.tol2bus.snoop_fanout::overflows              0      0.00%    100.00% # Request fanout histogram
system.tol2bus.snoop_fanout::min_value              0                       # Request fanout histogram
system.tol2bus.snoop_fanout::max_value              1                       # Request fanout histogram
system.tol2bus.snoop_fanout::total             103735                       # Request fanout histogram
system.tol2bus.reqLayer0.occupancy           95589000                       # Layer occupancy (ticks)
system.tol2bus.reqLayer0.utilization              0.1                       # Layer utilization (%)
system.tol2bus.respLayer0.occupancy           1132500                       # Layer occupancy (ticks)
system.tol2bus.respLayer0.utilization             0.0                       # Layer utilization (%)
system.tol2bus.respLayer1.occupancy          74571500                       # Layer occupancy (ticks)
system.tol2bus.respLayer1.utilization             0.1                       # Layer utilization (%)
system.tol3bus.pwrStateResidencyTicks::UNDEFINED  91430722500                       # Cumulative time (in ticks) in various power states
system.tol3bus.trans_dist::ReadResp             19169                       # Transaction distribution
system.tol3bus.trans_dist::WritebackDirty        32210                       # Transaction distribution
system.tol3bus.trans_dist::CleanEvict           15076                       # Transaction distribution
system.tol3bus.trans_dist::ReadExReq             6813                       # Transaction distribution
system.tol3bus.trans_dist::ReadExResp            6813                       # Transaction distribution
system.tol3bus.trans_dist::ReadSharedReq        19169                       # Transaction distribution
system.tol3bus.pkt_count_system.l2.mem_side::system.l3.cpu_side        75505                       # Packet count per connected master and slave (bytes)
system.tol3bus.pkt_size_system.l2.mem_side::system.l3.cpu_side      3079488                       # Cumulative packet size per connected master and slave (bytes)
system.tol3bus.snoops                           23745                       # Total snoops (count)
system.tol3bus.snoopTraffic                    644800                       # Total snoop traffic (bytes)
system.tol3bus.snoop_fanout::samples            73272                       # Request fanout histogram
system.tol3bus.snoop_fanout::mean            0.324066                       # Request fanout histogram
system.tol3bus.snoop_fanout::stdev           0.468028                       # Request fanout histogram
system.tol3bus.snoop_fanout::underflows             0      0.00%      0.00% # Request fanout histogram
system.tol3bus.snoop_fanout::0                  49527     67.59%     67.59% # Request fanout histogram
system.tol3bus.snoop_fanout::1                  23745     32.41%    100.00% # Request fanout histogram
system.tol3bus.snoop_fanout::overflows              0      0.00%    100.00% # Request fanout histogram
system.tol3bus.snoop_fanout::min_value              0                       # Request fanout histogram
system.tol3bus.snoop_fanout::max_value              1                       # Request fanout histogram
system.tol3bus.snoop_fanout::total              73272                       # Request fanout histogram
system.tol3bus.reqLayer0.occupancy           35832996                       # Layer occupancy (ticks)
system.tol3bus.reqLayer0.utilization              0.0                       # Layer utilization (%)
system.tol3bus.respLayer0.occupancy          25982004                       # Layer occupancy (ticks)
system.tol3bus.respLayer0.utilization             0.0                       # Layer utilization (%)

---------- End Simulation Statistics   ----------
