
---------- Begin Simulation Statistics ----------
sim_seconds                                  0.092502                       # Number of seconds simulated
sim_ticks                                 92502332500                       # Number of ticks simulated
final_tick                                92502332500                       # Number of ticks from beginning of simulation (restored from checkpoints and never reset)
sim_freq                                 1000000000000                       # Frequency of simulated ticks
host_inst_rate                                1017679                       # Simulator instruction rate (inst/s)
host_op_rate                                  1680476                       # Simulator op (including micro ops) rate (op/s)
host_tick_rate                             2107514219                       # Simulator tick rate (ticks/s)
host_mem_usage                                 670936                       # Number of bytes of host memory used
host_seconds                                    43.89                       # Real time elapsed on the host
sim_insts                                    44667607                       # Number of instructions simulated
sim_ops                                      73758908                       # Number of ops (including micro ops) simulated
system.voltage_domain.voltage                       1                       # Voltage in Volts
system.clk_domain.clock                          1000                       # Clock period in ticks
system.mem_ctrls.pwrStateResidencyTicks::UNDEFINED  92502332500                       # Cumulative time (in ticks) in various power states
system.mem_ctrls.bytes_read::cpu.inst           47104                       # Number of bytes read from this memory
system.mem_ctrls.bytes_read::cpu.data         1078272                       # Number of bytes read from this memory
system.mem_ctrls.bytes_read::total            1125376                       # Number of bytes read from this memory
system.mem_ctrls.bytes_inst_read::cpu.inst        47104                       # Number of instructions bytes read from this memory
system.mem_ctrls.bytes_inst_read::total         47104                       # Number of instructions bytes read from this memory
system.mem_ctrls.bytes_written::writebacks       747200                       # Number of bytes written to this memory
system.mem_ctrls.bytes_written::total          747200                       # Number of bytes written to this memory
system.mem_ctrls.num_reads::cpu.inst              736                       # Number of read requests responded to by this memory
system.mem_ctrls.num_reads::cpu.data            16848                       # Number of read requests responded to by this memory
system.mem_ctrls.num_reads::total               17584                       # Number of read requests responded to by this memory
system.mem_ctrls.num_writes::writebacks         11675                       # Number of write requests responded to by this memory
system.mem_ctrls.num_writes::total              11675                       # Number of write requests responded to by this memory
system.mem_ctrls.bw_read::cpu.inst             509220                       # Total read bandwidth from this memory (bytes/s)
system.mem_ctrls.bw_read::cpu.data           11656701                       # Total read bandwidth from this memory (bytes/s)
system.mem_ctrls.bw_read::total              12165920                       # Total read bandwidth from this memory (bytes/s)
system.mem_ctrls.bw_inst_read::cpu.inst        509220                       # Instruction read bandwidth from this memory (bytes/s)
system.mem_ctrls.bw_inst_read::total           509220                       # Instruction read bandwidth from this memory (bytes/s)
system.mem_ctrls.bw_write::writebacks         8077634                       # Write bandwidth from this memory (bytes/s)
system.mem_ctrls.bw_write::total              8077634                       # Write bandwidth from this memory (bytes/s)
system.mem_ctrls.bw_total::writebacks         8077634                       # Total bandwidth to/from this memory (bytes/s)
system.mem_ctrls.bw_total::cpu.inst            509220                       # Total bandwidth to/from this memory (bytes/s)
system.mem_ctrls.bw_total::cpu.data          11656701                       # Total bandwidth to/from this memory (bytes/s)
system.mem_ctrls.bw_total::total             20243554                       # Total bandwidth to/from this memory (bytes/s)
system.pwrStateResidencyTicks::UNDEFINED  92502332500                       # Cumulative time (in ticks) in various power states
system.cpu_voltage_domain.voltage                   1                       # Voltage in Volts
system.cpu_clk_domain.clock                       500                       # Clock period in ticks
system.cpu.dtb.walker.pwrStateResidencyTicks::UNDEFINED  92502332500                       # Cumulative time (in ticks) in various power states
system.cpu.dtb.rdAccesses                    20998408                       # TLB accesses on read requests
system.cpu.dtb.wrAccesses                     5824776                       # TLB accesses on write requests
system.cpu.dtb.rdMisses                           231                       # TLB misses on read requests
system.cpu.dtb.wrMisses                           111                       # TLB misses on write requests
system.cpu.apic_clk_domain.clock                 8000                       # Clock period in ticks
system.cpu.interrupts.pwrStateResidencyTicks::UNDEFINED  92502332500                       # Cumulative time (in ticks) in various power states
system.cpu.itb.walker.pwrStateResidencyTicks::UNDEFINED  92502332500                       # Cumulative time (in ticks) in various power states
system.cpu.itb.rdAccesses                           0                       # TLB accesses on read requests
system.cpu.itb.wrAccesses                    59528532                       # TLB accesses on write requests
system.cpu.itb.rdMisses                             0                       # TLB misses on read requests
system.cpu.itb.wrMisses                            78                       # TLB misses on write requests
system.cpu.workload.numSyscalls                    25                       # Number of system calls
system.cpu.pwrStateResidencyTicks::ON     92502332500                       # Cumulative time (in ticks) in various power states
system.cpu.numCycles                        185004665                       # number of cpu cycles simulated
system.cpu.numWorkItemsStarted                      0                       # number of work items this cpu started
system.cpu.numWorkItemsCompleted                    0                       # number of work items this cpu completed
system.cpu.committedInsts                    44667607                       # Number of instructions committed
system.cpu.committedOps                      73758908                       # Number of ops (including micro ops) committed
system.cpu.num_int_alu_accesses              73234925                       # Number of integer alu accesses
system.cpu.num_fp_alu_accesses                   4324                       # Number of float alu accesses
system.cpu.num_vec_alu_accesses                     0                       # Number of vector alu accesses
system.cpu.num_func_calls                      945812                       # number of times a function call or return occured
system.cpu.num_conditional_control_insts      4246113                       # number of instructions that are conditional controls
system.cpu.num_int_insts                     73234925                       # number of integer instructions
system.cpu.num_fp_insts                          4324                       # number of float instructions
system.cpu.num_vec_insts                            0                       # number of vector instructions
system.cpu.num_int_register_reads           164564264                       # number of times the integer registers were read
system.cpu.num_int_register_writes           63904152                       # number of times the integer registers were written
system.cpu.num_fp_register_reads                 6422                       # number of times the floating registers were read
system.cpu.num_fp_register_writes                3209                       # number of times the floating registers were written
system.cpu.num_vec_register_reads                   0                       # number of times the vector registers were read
system.cpu.num_vec_register_writes                  0                       # number of times the vector registers were written
system.cpu.num_cc_register_reads             27729338                       # number of times the CC registers were read
system.cpu.num_cc_register_writes            24993571                       # number of times the CC registers were written
system.cpu.num_mem_refs                      26823176                       # number of memory refs
system.cpu.num_load_insts                    20998400                       # Number of load instructions
system.cpu.num_store_insts                    5824776                       # Number of store instructions
system.cpu.num_idle_cycles                          0                       # Number of idle cycles
system.cpu.num_busy_cycles                  185004665                       # Number of busy cycles
system.cpu.not_idle_fraction                        1                       # Percentage of non-idle cycles
system.cpu.idle_fraction                            0                       # Percentage of idle cycles
system.cpu.Branches                           5689970                       # Number of branches fetched
system.cpu.op_class::No_OpClass                177072      0.24%      0.24% # Class of executed instruction
system.cpu.op_class::IntAlu                  45751849     62.03%     62.27% # Class of executed instruction
system.cpu.op_class::IntMult                       15      0.00%     62.27% # Class of executed instruction
system.cpu.op_class::IntDiv                   1004199      1.36%     63.63% # Class of executed instruction
system.cpu.op_class::FloatAdd                     132      0.00%     63.63% # Class of executed instruction
system.cpu.op_class::FloatCmp                       0      0.00%     63.63% # Class of executed instruction
system.cpu.op_class::FloatCvt                       0      0.00%     63.63% # Class of executed instruction
system.cpu.op_class::FloatMult                      0      0.00%     63.63% # Class of executed instruction
system.cpu.op_class::FloatMultAcc                   0      0.00%     63.63% # Class of executed instruction
system.cpu.op_class::FloatDiv                       0      0.00%     63.63% # Class of executed instruction
system.cpu.op_class::FloatMisc                      0      0.00%     63.63% # Class of executed instruction
system.cpu.op_class::FloatSqrt                      0      0.00%     63.63% # Class of executed instruction
system.cpu.op_class::SimdAdd                      348      0.00%     63.63% # Class of executed instruction
system.cpu.op_class::SimdAddAcc                     0      0.00%     63.63% # Class of executed instruction
system.cpu.op_class::SimdAlu                      682      0.00%     63.63% # Class of executed instruction
system.cpu.op_class::SimdCmp                        0      0.00%     63.63% # Class of executed instruction
system.cpu.op_class::SimdCvt                      776      0.00%     63.63% # Class of executed instruction
system.cpu.op_class::SimdMisc                     530      0.00%     63.63% # Class of executed instruction
system.cpu.op_class::SimdMult                       0      0.00%     63.63% # Class of executed instruction
system.cpu.op_class::SimdMultAcc                    0      0.00%     63.63% # Class of executed instruction
system.cpu.op_class::SimdShift                    129      0.00%     63.63% # Class of executed instruction
system.cpu.op_class::SimdShiftAcc                   0      0.00%     63.63% # Class of executed instruction
system.cpu.op_class::SimdSqrt                       0      0.00%     63.63% # Class of executed instruction
system.cpu.op_class::SimdFloatAdd                   0      0.00%     63.63% # Class of executed instruction
system.cpu.op_class::SimdFloatAlu                   0      0.00%     63.63% # Class of executed instruction
system.cpu.op_class::SimdFloatCmp                   0      0.00%     63.63% # Class of executed instruction
system.cpu.op_class::SimdFloatCvt                   0      0.00%     63.63% # Class of executed instruction
system.cpu.op_class::SimdFloatDiv                   0      0.00%     63.63% # Class of executed instruction
system.cpu.op_class::SimdFloatMisc                  0      0.00%     63.63% # Class of executed instruction
system.cpu.op_class::SimdFloatMult                  0      0.00%     63.63% # Class of executed instruction
system.cpu.op_class::SimdFloatMultAcc               0      0.00%     63.63% # Class of executed instruction
system.cpu.op_class::SimdFloatSqrt                  0      0.00%     63.63% # Class of executed instruction
system.cpu.op_class::MemRead                 20997422     28.47%     92.10% # Class of executed instruction
system.cpu.op_class::MemWrite                 5824086      7.90%    100.00% # Class of executed instruction
system.cpu.op_class::FloatMemRead                 978      0.00%    100.00% # Class of executed instruction
system.cpu.op_class::FloatMemWrite                690      0.00%    100.00% # Class of executed instruction
system.cpu.op_class::IprAccess                      0      0.00%    100.00% # Class of executed instruction
system.cpu.op_class::InstPrefetch                   0      0.00%    100.00% # Class of executed instruction
system.cpu.op_class::total                   73758908                       # Class of executed instruction
system.cpu.dcache.tags.pwrStateResidencyTicks::UNDEFINED  92502332500                       # Cumulative time (in ticks) in various power states
system.cpu.dcache.tags.tagsinuse           511.437923                       # Cycle average of tags in use
system.cpu.dcache.tags.total_refs            26823184                       # Total number of references to valid blocks.
system.cpu.dcache.tags.sampled_refs             47013                       # Sample count of references to valid blocks.
system.cpu.dcache.tags.avg_refs            570.548231                       # Average number of references to valid blocks.
system.cpu.dcache.tags.warmup_cycle            761500                       # Cycle when the warmup percentage was hit.
system.cpu.dcache.tags.occ_blocks::cpu.data   511.437923                       # Average occupied blocks per requestor
system.cpu.dcache.tags.occ_percent::cpu.data     0.998902                       # Average percentage of cache occupancy
system.cpu.dcache.tags.occ_percent::total     0.998902                       # Average percentage of cache occupancy
system.cpu.dcache.tags.occ_task_id_blocks::1024          512                       # Occupied blocks per task id
system.cpu.dcache.tags.age_task_id_blocks_1024::0           12                       # Occupied blocks per task id
system.cpu.dcache.tags.age_task_id_blocks_1024::1           44                       # Occupied blocks per task id
system.cpu.dcache.tags.age_task_id_blocks_1024::2           33                       # Occupied blocks per task id
system.cpu.dcache.tags.age_task_id_blocks_1024::3          421                       # Occupied blocks per task id
system.cpu.dcache.tags.age_task_id_blocks_1024::4            2                       # Occupied blocks per task id
system.cpu.dcache.tags.occ_task_id_percent::1024            1                       # Percentage of cache occupancy per task id
system.cpu.dcache.tags.tag_accesses          53693381                       # Number of tag accesses
system.cpu.dcache.tags.data_accesses         53693381                       # Number of data accesses
system.cpu.dcache.pwrStateResidencyTicks::UNDEFINED  92502332500                       # Cumulative time (in ticks) in various power states
system.cpu.dcache.ReadReq_hits::cpu.data     20958483                       # number of ReadReq hits
system.cpu.dcache.ReadReq_hits::total        20958483                       # number of ReadReq hits
system.cpu.dcache.WriteReq_hits::cpu.data      5810392                       # number of WriteReq hits
system.cpu.dcache.WriteReq_hits::total        5810392                       # number of WriteReq hits
system.cpu.dcache.demand_hits::cpu.data      26768875                       # number of demand (read+write) hits
system.cpu.dcache.demand_hits::total         26768875                       # number of demand (read+write) hits
system.cpu.dcache.overall_hits::cpu.data     26768875                       # number of overall hits
system.cpu.dcache.overall_hits::total        26768875                       # number of overall hits
system.cpu.dcache.ReadReq_misses::cpu.data        39925                       # number of ReadReq misses
system.cpu.dcache.ReadReq_misses::total         39925                       # number of ReadReq misses
system.cpu.dcache.WriteReq_misses::cpu.data        14384                       # number of WriteReq misses
system.cpu.dcache.WriteReq_misses::total        14384                       # number of WriteReq misses
system.cpu.dcache.demand_misses::cpu.data        54309                       # number of demand (read+write) misses
system.cpu.dcache.demand_misses::total          54309                       # number of demand (read+write) misses
system.cpu.dcache.overall_misses::cpu.data        54309                       # number of overall misses
system.cpu.dcache.overall_misses::total         54309                       # number of overall misses
system.cpu.dcache.ReadReq_miss_latency::cpu.data   4432864500                       # number of ReadReq miss cycles
system.cpu.dcache.ReadReq_miss_latency::total   4432864500                       # number of ReadReq miss cycles
system.cpu.dcache.WriteReq_miss_latency::cpu.data   1648061500                       # number of WriteReq miss cycles
system.cpu.dcache.WriteReq_miss_latency::total   1648061500                       # number of WriteReq miss cycles
system.cpu.dcache.demand_miss_latency::cpu.data   6080926000                       # number of demand (read+write) miss cycles
system.cpu.dcache.demand_miss_latency::total   6080926000                       # number of demand (read+write) miss cycles
system.cpu.dcache.overall_miss_latency::cpu.data   6080926000                       # number of overall miss cycles
system.cpu.dcache.overall_miss_latency::total   6080926000                       # number of overall miss cycles
system.cpu.dcache.ReadReq_accesses::cpu.data     20998408                       # number of ReadReq accesses(hits+misses)
system.cpu.dcache.ReadReq_accesses::total     20998408                       # number of ReadReq accesses(hits+misses)
system.cpu.dcache.WriteReq_accesses::cpu.data      5824776                       # number of WriteReq accesses(hits+misses)
system.cpu.dcache.WriteReq_accesses::total      5824776                       # number of WriteReq accesses(hits+misses)
system.cpu.dcache.demand_accesses::cpu.data     26823184                       # number of demand (read+write) accesses
system.cpu.dcache.demand_accesses::total     26823184                       # number of demand (read+write) accesses
system.cpu.dcache.overall_accesses::cpu.data     26823184                       # number of overall (read+write) accesses
system.cpu.dcache.overall_accesses::total     26823184                       # number of overall (read+write) accesses
system.cpu.dcache.ReadReq_miss_rate::cpu.data     0.001901                       # miss rate for ReadReq accesses
system.cpu.dcache.ReadReq_miss_rate::total     0.001901                       # miss rate for ReadReq accesses
system.cpu.dcache.WriteReq_miss_rate::cpu.data     0.002469                       # miss rate for WriteReq accesses
system.cpu.dcache.WriteReq_miss_rate::total     0.002469                       # miss rate for WriteReq accesses
system.cpu.dcache.demand_miss_rate::cpu.data     0.002025                       # miss rate for demand accesses
system.cpu.dcache.demand_miss_rate::total     0.002025                       # miss rate for demand accesses
system.cpu.dcache.overall_miss_rate::cpu.data     0.002025                       # miss rate for overall accesses
system.cpu.dcache.overall_miss_rate::total     0.002025                       # miss rate for overall accesses
system.cpu.dcache.ReadReq_avg_miss_latency::cpu.data 111029.793363                       # average ReadReq miss latency
system.cpu.dcache.ReadReq_avg_miss_latency::total 111029.793363                       # average ReadReq miss latency
system.cpu.dcache.WriteReq_avg_miss_latency::cpu.data 114576.021969                       # average WriteReq miss latency
system.cpu.dcache.WriteReq_avg_miss_latency::total 114576.021969                       # average WriteReq miss latency
system.cpu.dcache.demand_avg_miss_latency::cpu.data 111969.029074                       # average overall miss latency
system.cpu.dcache.demand_avg_miss_latency::total 111969.029074                       # average overall miss latency
system.cpu.dcache.overall_avg_miss_latency::cpu.data 111969.029074                       # average overall miss latency
system.cpu.dcache.overall_avg_miss_latency::total 111969.029074                       # average overall miss latency
system.cpu.dcache.blocked_cycles::no_mshrs            0                       # number of cycles access was blocked
system.cpu.dcache.blocked_cycles::no_targets            0                       # number of cycles access was blocked
system.cpu.dcache.blocked::no_mshrs                 0                       # number of cycles access was blocked
system.cpu.dcache.blocked::no_targets               0                       # number of cycles access was blocked
system.cpu.dcache.avg_blocked_cycles::no_mshrs          nan                       # average number of cycles each access was blocked
system.cpu.dcache.avg_blocked_cycles::no_targets          nan                       # average number of cycles each access was blocked
system.cpu.dcache.writebacks::writebacks        43941                       # number of writebacks
system.cpu.dcache.writebacks::total             43941                       # number of writebacks
system.cpu.dcache.ReadReq_mshr_misses::cpu.data        39925                       # number of ReadReq MSHR misses
system.cpu.dcache.ReadReq_mshr_misses::total        39925                       # number of ReadReq MSHR misses
system.cpu.dcache.WriteReq_mshr_misses::cpu.data        14384                       # number of WriteReq MSHR misses
system.cpu.dcache.WriteReq_mshr_misses::total        14384                       # number of WriteReq MSHR misses
system.cpu.dcache.demand_mshr_misses::cpu.data        54309                       # number of demand (read+write) MSHR misses
system.cpu.dcache.demand_mshr_misses::total        54309                       # number of demand (read+write) MSHR misses
system.cpu.dcache.overall_mshr_misses::cpu.data        54309                       # number of overall MSHR misses
system.cpu.dcache.overall_mshr_misses::total        54309                       # number of overall MSHR misses
system.cpu.dcache.ReadReq_mshr_miss_latency::cpu.data   4392939500                       # number of ReadReq MSHR miss cycles
system.cpu.dcache.ReadReq_mshr_miss_latency::total   4392939500                       # number of ReadReq MSHR miss cycles
system.cpu.dcache.WriteReq_mshr_miss_latency::cpu.data   1633677500                       # number of WriteReq MSHR miss cycles
system.cpu.dcache.WriteReq_mshr_miss_latency::total   1633677500                       # number of WriteReq MSHR miss cycles
system.cpu.dcache.demand_mshr_miss_latency::cpu.data   6026617000                       # number of demand (read+write) MSHR miss cycles
system.cpu.dcache.demand_mshr_miss_latency::total   6026617000                       # number of demand (read+write) MSHR miss cycles
system.cpu.dcache.overall_mshr_miss_latency::cpu.data   6026617000                       # number of overall MSHR miss cycles
system.cpu.dcache.overall_mshr_miss_latency::total   6026617000                       # number of overall MSHR miss cycles
system.cpu.dcache.ReadReq_mshr_miss_rate::cpu.data     0.001901                       # mshr miss rate for ReadReq accesses
system.cpu.dcache.ReadReq_mshr_miss_rate::total     0.001901                       # mshr miss rate for ReadReq accesses
system.cpu.dcache.WriteReq_mshr_miss_rate::cpu.data     0.002469                       # mshr miss rate for WriteReq accesses
system.cpu.dcache.WriteReq_mshr_miss_rate::total     0.002469                       # mshr miss rate for WriteReq accesses
system.cpu.dcache.demand_mshr_miss_rate::cpu.data     0.002025                       # mshr miss rate for demand accesses
system.cpu.dcache.demand_mshr_miss_rate::total     0.002025                       # mshr miss rate for demand accesses
system.cpu.dcache.overall_mshr_miss_rate::cpu.data     0.002025                       # mshr miss rate for overall accesses
system.cpu.dcache.overall_mshr_miss_rate::total     0.002025                       # mshr miss rate for overall accesses
system.cpu.dcache.ReadReq_avg_mshr_miss_latency::cpu.data 110029.793363                       # average ReadReq mshr miss latency
system.cpu.dcache.ReadReq_avg_mshr_miss_latency::total 110029.793363                       # average ReadReq mshr miss latency
system.cpu.dcache.WriteReq_avg_mshr_miss_latency::cpu.data 113576.021969                       # average WriteReq mshr miss latency
system.cpu.dcache.WriteReq_avg_mshr_miss_latency::total 113576.021969                       # average WriteReq mshr miss latency
system.cpu.dcache.demand_avg_mshr_miss_latency::cpu.data 110969.029074                       # average overall mshr miss latency
system.cpu.dcache.demand_avg_mshr_miss_latency::total 110969.029074                       # average overall mshr miss latency
system.cpu.dcache.overall_avg_mshr_miss_latency::cpu.data 110969.029074                       # average overall mshr miss latency
system.cpu.dcache.overall_avg_mshr_miss_latency::total 110969.029074                       # average overall mshr miss latency
system.cpu.dcache.replacements                  46501                       # number of replacements
system.cpu.dtb_walker_cache.tags.pwrStateResidencyTicks::UNDEFINED  92502332500                       # Cumulative time (in ticks) in various power states
system.cpu.dtb_walker_cache.tags.tagsinuse            0                       # Cycle average of tags in use
system.cpu.dtb_walker_cache.tags.total_refs            0                       # Total number of references to valid blocks.
system.cpu.dtb_walker_cache.tags.sampled_refs            0                       # Sample count of references to valid blocks.
system.cpu.dtb_walker_cache.tags.avg_refs          nan                       # Average number of references to valid blocks.
system.cpu.dtb_walker_cache.tags.warmup_cycle            0                       # Cycle when the warmup percentage was hit.
system.cpu.dtb_walker_cache.tags.tag_accesses            0                       # Number of tag accesses
system.cpu.dtb_walker_cache.tags.data_accesses            0                       # Number of data accesses
system.cpu.dtb_walker_cache.pwrStateResidencyTicks::UNDEFINED  92502332500                       # Cumulative time (in ticks) in various power states
system.cpu.dtb_walker_cache.blocked_cycles::no_mshrs            0                       # number of cycles access was blocked
system.cpu.dtb_walker_cache.blocked_cycles::no_targets            0                       # number of cycles access was blocked
system.cpu.dtb_walker_cache.blocked::no_mshrs            0                       # number of cycles access was blocked
system.cpu.dtb_walker_cache.blocked::no_targets            0                       # number of cycles access was blocked
system.cpu.dtb_walker_cache.avg_blocked_cycles::no_mshrs          nan                       # average number of cycles each access was blocked
system.cpu.dtb_walker_cache.avg_blocked_cycles::no_targets          nan                       # average number of cycles each access was blocked
system.cpu.dtb_walker_cache.replacements            0                       # number of replacements
system.cpu.icache.tags.pwrStateResidencyTicks::UNDEFINED  92502332500                       # Cumulative time (in ticks) in various power states
system.cpu.icache.tags.tagsinuse           439.197569                       # Cycle average of tags in use
system.cpu.icache.tags.total_refs            59528532                       # Total number of references to valid blocks.
system.cpu.icache.tags.sampled_refs               755                       # Sample count of references to valid blocks.
system.cpu.icache.tags.avg_refs          78845.737748                       # Average number of references to valid blocks.
system.cpu.icache.tags.warmup_cycle            440500                       # Cycle when the warmup percentage was hit.
system.cpu.icache.tags.occ_blocks::cpu.inst   439.197569                       # Average occupied blocks per requestor
system.cpu.icache.tags.occ_percent::cpu.inst     0.857808                       # Average percentage of cache occupancy
system.cpu.icache.tags.occ_percent::total     0.857808                       # Average percentage of cache occupancy
system.cpu.icache.tags.occ_task_id_blocks::1024          450                       # Occupied blocks per task id
system.cpu.icache.tags.age_task_id_blocks_1024::0           21                       # Occupied blocks per task id
system.cpu.icache.tags.age_task_id_blocks_1024::1           39                       # Occupied blocks per task id
system.cpu.icache.tags.age_task_id_blocks_1024::4          390                       # Occupied blocks per task id
system.cpu.icache.tags.occ_task_id_percent::1024     0.878906                       # Percentage of cache occupancy per task id
system.cpu.icache.tags.tag_accesses         119057819                       # Number of tag accesses
system.cpu.icache.tags.data_accesses        119057819                       # Number of data accesses
system.cpu.icache.pwrStateResidencyTicks::UNDEFINED  92502332500                       # Cumulative time (in ticks) in various power states
system.cpu.icache.ReadReq_hits::cpu.inst     59527777                       # number of ReadReq hits
system.cpu.icache.ReadReq_hits::total        59527777                       # number of ReadReq hits
system.cpu.icache.demand_hits::cpu.inst      59527777                       # number of demand (read+write) hits
system.cpu.icache.demand_hits::total         59527777                       # number of demand (read+write) hits
system.cpu.icache.overall_hits::cpu.inst     59527777                       # number of overall hits
system.cpu.icache.overall_hits::total        59527777                       # number of overall hits
system.cpu.icache.ReadReq_misses::cpu.inst          755                       # number of ReadReq misses
system.cpu.icache.ReadReq_misses::total           755                       # number of ReadReq misses
system.cpu.icache.demand_misses::cpu.inst          755                       # number of demand (read+write) misses
system.cpu.icache.demand_misses::total            755                       # number of demand (read+write) misses
system.cpu.icache.overall_misses::cpu.inst          755                       # number of overall misses
system.cpu.icache.overall_misses::total           755                       # number of overall misses
system.cpu.icache.ReadReq_miss_latency::cpu.inst    125073500                       # number of ReadReq miss cycles
system.cpu.icache.ReadReq_miss_latency::total    125073500                       # number of ReadReq miss cycles
system.cpu.icache.demand_miss_latency::cpu.inst    125073500                       # number of demand (read+write) miss cycles
system.cpu.icache.demand_miss_latency::total    125073500                       # number of demand (read+write) miss cycles
system.cpu.icache.overall_miss_latency::cpu.inst    125073500                       # number of overall miss cycles
system.cpu.icache.overall_miss_latency::total    125073500                       # number of overall miss cycles
system.cpu.icache.ReadReq_accesses::cpu.inst     59528532                       # number of ReadReq accesses(hits+misses)
system.cpu.icache.ReadReq_accesses::total     59528532                       # number of ReadReq accesses(hits+misses)
system.cpu.icache.demand_accesses::cpu.inst     59528532                       # number of demand (read+write) accesses
system.cpu.icache.demand_accesses::total     59528532                       # number of demand (read+write) accesses
system.cpu.icache.overall_accesses::cpu.inst     59528532                       # number of overall (read+write) accesses
system.cpu.icache.overall_accesses::total     59528532                       # number of overall (read+write) accesses
system.cpu.icache.ReadReq_miss_rate::cpu.inst     0.000013                       # miss rate for ReadReq accesses
system.cpu.icache.ReadReq_miss_rate::total     0.000013                       # miss rate for ReadReq accesses
system.cpu.icache.demand_miss_rate::cpu.inst     0.000013                       # miss rate for demand accesses
system.cpu.icache.demand_miss_rate::total     0.000013                       # miss rate for demand accesses
system.cpu.icache.overall_miss_rate::cpu.inst     0.000013                       # miss rate for overall accesses
system.cpu.icache.overall_miss_rate::total     0.000013                       # miss rate for overall accesses
system.cpu.icache.ReadReq_avg_miss_latency::cpu.inst 165660.264901                       # average ReadReq miss latency
system.cpu.icache.ReadReq_avg_miss_latency::total 165660.264901                       # average ReadReq miss latency
system.cpu.icache.demand_avg_miss_latency::cpu.inst 165660.264901                       # average overall miss latency
system.cpu.icache.demand_avg_miss_latency::total 165660.264901                       # average overall miss latency
system.cpu.icache.overall_avg_miss_latency::cpu.inst 165660.264901                       # average overall miss latency
system.cpu.icache.overall_avg_miss_latency::total 165660.264901                       # average overall miss latency
system.cpu.icache.blocked_cycles::no_mshrs            0                       # number of cycles access was blocked
system.cpu.icache.blocked_cycles::no_targets            0                       # number of cycles access was blocked
system.cpu.icache.blocked::no_mshrs                 0                       # number of cycles access was blocked
system.cpu.icache.blocked::no_targets               0                       # number of cycles access was blocked
system.cpu.icache.avg_blocked_cycles::no_mshrs          nan                       # average number of cycles each access was blocked
system.cpu.icache.avg_blocked_cycles::no_targets          nan                       # average number of cycles each access was blocked
system.cpu.icache.writebacks::writebacks          305                       # number of writebacks
system.cpu.icache.writebacks::total               305                       # number of writebacks
system.cpu.icache.ReadReq_mshr_misses::cpu.inst          755                       # number of ReadReq MSHR misses
system.cpu.icache.ReadReq_mshr_misses::total          755                       # number of ReadReq MSHR misses
system.cpu.icache.demand_mshr_misses::cpu.inst          755                       # number of demand (read+write) MSHR misses
system.cpu.icache.demand_mshr_misses::total          755                       # number of demand (read+write) MSHR misses
system.cpu.icache.overall_mshr_misses::cpu.inst          755                       # number of overall MSHR misses
system.cpu.icache.overall_mshr_misses::total          755                       # number of overall MSHR misses
system.cpu.icache.ReadReq_mshr_miss_latency::cpu.inst    124318500                       # number of ReadReq MSHR miss cycles
system.cpu.icache.ReadReq_mshr_miss_latency::total    124318500                       # number of ReadReq MSHR miss cycles
system.cpu.icache.demand_mshr_miss_latency::cpu.inst    124318500                       # number of demand (read+write) MSHR miss cycles
system.cpu.icache.demand_mshr_miss_latency::total    124318500                       # number of demand (read+write) MSHR miss cycles
system.cpu.icache.overall_mshr_miss_latency::cpu.inst    124318500                       # number of overall MSHR miss cycles
system.cpu.icache.overall_mshr_miss_latency::total    124318500                       # number of overall MSHR miss cycles
system.cpu.icache.ReadReq_mshr_miss_rate::cpu.inst     0.000013                       # mshr miss rate for ReadReq accesses
system.cpu.icache.ReadReq_mshr_miss_rate::total     0.000013                       # mshr miss rate for ReadReq accesses
system.cpu.icache.demand_mshr_miss_rate::cpu.inst     0.000013                       # mshr miss rate for demand accesses
system.cpu.icache.demand_mshr_miss_rate::total     0.000013                       # mshr miss rate for demand accesses
system.cpu.icache.overall_mshr_miss_rate::cpu.inst     0.000013                       # mshr miss rate for overall accesses
system.cpu.icache.overall_mshr_miss_rate::total     0.000013                       # mshr miss rate for overall accesses
system.cpu.icache.ReadReq_avg_mshr_miss_latency::cpu.inst 164660.264901                       # average ReadReq mshr miss latency
system.cpu.icache.ReadReq_avg_mshr_miss_latency::total 164660.264901                       # average ReadReq mshr miss latency
system.cpu.icache.demand_avg_mshr_miss_latency::cpu.inst 164660.264901                       # average overall mshr miss latency
system.cpu.icache.demand_avg_mshr_miss_latency::total 164660.264901                       # average overall mshr miss latency
system.cpu.icache.overall_avg_mshr_miss_latency::cpu.inst 164660.264901                       # average overall mshr miss latency
system.cpu.icache.overall_avg_mshr_miss_latency::total 164660.264901                       # average overall mshr miss latency
system.cpu.icache.replacements                    305                       # number of replacements
system.cpu.itb_walker_cache.tags.pwrStateResidencyTicks::UNDEFINED  92502332500                       # Cumulative time (in ticks) in various power states
system.cpu.itb_walker_cache.tags.tagsinuse            0                       # Cycle average of tags in use
system.cpu.itb_walker_cache.tags.total_refs            0                       # Total number of references to valid blocks.
system.cpu.itb_walker_cache.tags.sampled_refs            0                       # Sample count of references to valid blocks.
system.cpu.itb_walker_cache.tags.avg_refs          nan                       # Average number of references to valid blocks.
system.cpu.itb_walker_cache.tags.warmup_cycle            0                       # Cycle when the warmup percentage was hit.
system.cpu.itb_walker_cache.tags.tag_accesses            0                       # Number of tag accesses
system.cpu.itb_walker_cache.tags.data_accesses            0                       # Number of data accesses
system.cpu.itb_walker_cache.pwrStateResidencyTicks::UNDEFINED  92502332500                       # Cumulative time (in ticks) in various power states
system.cpu.itb_walker_cache.blocked_cycles::no_mshrs            0                       # number of cycles access was blocked
system.cpu.itb_walker_cache.blocked_cycles::no_targets            0                       # number of cycles access was blocked
system.cpu.itb_walker_cache.blocked::no_mshrs            0                       # number of cycles access was blocked
system.cpu.itb_walker_cache.blocked::no_targets            0                       # number of cycles access was blocked
system.cpu.itb_walker_cache.avg_blocked_cycles::no_mshrs          nan                       # average number of cycles each access was blocked
system.cpu.itb_walker_cache.avg_blocked_cycles::no_targets          nan                       # average number of cycles each access was blocked
system.cpu.itb_walker_cache.replacements            0                       # number of replacements
system.l2.tags.pwrStateResidencyTicks::UNDEFINED  92502332500                       # Cumulative time (in ticks) in various power states
system.l2.tags.tagsinuse                  2043.488694                       # Cycle average of tags in use
system.l2.tags.total_refs                      101841                       # Total number of references to valid blocks.
system.l2.tags.sampled_refs                     26166                       # Sample count of references to valid blocks.
system.l2.tags.avg_refs                      3.892112                       # Average number of references to valid blocks.
system.l2.tags.warmup_cycle                    430000                       # Cycle when the warmup percentage was hit.
system.l2.tags.occ_blocks::writebacks        4.787920                       # Average occupied blocks per requestor
system.l2.tags.occ_blocks::cpu.inst          8.986689                       # Average occupied blocks per requestor
system.l2.tags.occ_blocks::cpu.data       2029.714084                       # Average occupied blocks per requestor
system.l2.tags.occ_percent::writebacks       0.002338                       # Average percentage of cache occupancy
system.l2.tags.occ_percent::cpu.inst         0.004388                       # Average percentage of cache occupancy
system.l2.tags.occ_percent::cpu.data         0.991071                       # Average percentage of cache occupancy
system.l2.tags.occ_percent::total            0.997797                       # Average percentage of cache occupancy
system.l2.tags.occ_task_id_blocks::1024          2048                       # Occupied blocks per task id
system.l2.tags.age_task_id_blocks_1024::0           52                       # Occupied blocks per task id
system.l2.tags.age_task_id_blocks_1024::1          115                       # Occupied blocks per task id
system.l2.tags.age_task_id_blocks_1024::2           33                       # Occupied blocks per task id
system.l2.tags.age_task_id_blocks_1024::3           54                       # Occupied blocks per task id
system.l2.tags.age_task_id_blocks_1024::4         1794                       # Occupied blocks per task id
system.l2.tags.occ_task_id_percent::1024            1                       # Percentage of cache occupancy per task id
system.l2.tags.tag_accesses                    841118                       # Number of tag accesses
system.l2.tags.data_accesses                   841118                       # Number of data accesses
system.l2.pwrStateResidencyTicks::UNDEFINED  92502332500                       # Cumulative time (in ticks) in various power states
system.l2.WritebackDirty_hits::writebacks        43941                       # number of WritebackDirty hits
system.l2.WritebackDirty_hits::total            43941                       # number of WritebackDirty hits
system.l2.WritebackClean_hits::writebacks          305                       # number of WritebackClean hits
system.l2.WritebackClean_hits::total              305                       # number of WritebackClean hits
system.l2.UpgradeReq_hits::cpu.data              7296                       # number of UpgradeReq hits
system.l2.UpgradeReq_hits::total                 7296                       # number of UpgradeReq hits
system.l2.ReadExReq_hits::cpu.data                275                       # number of ReadExReq hits
system.l2.ReadExReq_hits::total                   275                       # number of ReadExReq hits
system.l2.ReadCleanReq_hits::cpu.inst              16                       # number of ReadCleanReq hits
system.l2.ReadCleanReq_hits::total                 16                       # number of ReadCleanReq hits
system.l2.ReadSharedReq_hits::cpu.data          21495                       # number of ReadSharedReq hits
system.l2.ReadSharedReq_hits::total             21495                       # number of ReadSharedReq hits
system.l2.demand_hits::cpu.inst                    16                       # number of demand (read+write) hits
system.l2.demand_hits::cpu.data                 21770                       # number of demand (read+write) hits
system.l2.demand_hits::total                    21786                       # number of demand (read+write) hits
system.l2.overall_hits::cpu.inst                   16                       # number of overall hits
system.l2.overall_hits::cpu.data                21770                       # number of overall hits
system.l2.overall_hits::total                   21786                       # number of overall hits
system.l2.ReadExReq_misses::cpu.data             6813                       # number of ReadExReq misses
system.l2.ReadExReq_misses::total                6813                       # number of ReadExReq misses
system.l2.ReadCleanReq_misses::cpu.inst           739                       # number of ReadCleanReq misses
system.l2.ReadCleanReq_misses::total              739                       # number of ReadCleanReq misses
system.l2.ReadSharedReq_misses::cpu.data        18430                       # number of ReadSharedReq misses
system.l2.ReadSharedReq_misses::total           18430                       # number of ReadSharedReq misses
system.l2.demand_misses::cpu.inst                 739                       # number of demand (read+write) misses
system.l2.demand_misses::cpu.data               25243                       # number of demand (read+write) misses
system.l2.demand_misses::total                  25982                       # number of demand (read+write) misses
system.l2.overall_misses::cpu.inst                739                       # number of overall misses
system.l2.overall_misses::cpu.data              25243                       # number of overall misses
system.l2.overall_misses::total                 25982                       # number of overall misses
system.l2.ReadExReq_miss_latency::cpu.data   1532603500                       # number of ReadExReq miss cycles
system.l2.ReadExReq_miss_latency::total    1532603500                       # number of ReadExReq miss cycles
system.l2.ReadCleanReq_miss_latency::cpu.inst    123014000                       # number of ReadCleanReq miss cycles
system.l2.ReadCleanReq_miss_latency::total    123014000                       # number of ReadCleanReq miss cycles
system.l2.ReadSharedReq_miss_latency::cpu.data   4107346000                       # number of ReadSharedReq miss cycles
system.l2.ReadSharedReq_miss_latency::total   4107346000                       # number of ReadSharedReq miss cycles
system.l2.demand_miss_latency::cpu.inst     123014000                       # number of demand (read+write) miss cycles
system.l2.demand_miss_latency::cpu.data    5639949500                       # number of demand (read+write) miss cycles
system.l2.demand_miss_latency::total       5762963500                       # number of demand (read+write) miss cycles
system.l2.overall_miss_latency::cpu.inst    123014000                       # number of overall miss cycles
system.l2.overall_miss_latency::cpu.data   5639949500                       # number of overall miss cycles
system.l2.overall_miss_latency::total      5762963500                       # number of overall miss cycles
system.l2.WritebackDirty_accesses::writebacks        43941                       # number of WritebackDirty accesses(hits+misses)
system.l2.WritebackDirty_accesses::total        43941                       # number of WritebackDirty accesses(hits+misses)
system.l2.WritebackClean_accesses::writebacks          305                       # number of WritebackClean accesses(hits+misses)
system.l2.WritebackClean_accesses::total          305                       # number of WritebackClean accesses(hits+misses)
system.l2.UpgradeReq_accesses::cpu.data          7296                       # number of UpgradeReq accesses(hits+misses)
system.l2.UpgradeReq_accesses::total             7296                       # number of UpgradeReq accesses(hits+misses)
system.l2.ReadExReq_accesses::cpu.data           7088                       # number of ReadExReq accesses(hits+misses)
system.l2.ReadExReq_accesses::total              7088                       # number of ReadExReq accesses(hits+misses)
system.l2.ReadCleanReq_accesses::cpu.inst          755                       # number of ReadCleanReq accesses(hits+misses)
system.l2.ReadCleanReq_accesses::total            755                       # number of ReadCleanReq accesses(hits+misses)
system.l2.ReadSharedReq_accesses::cpu.data        39925                       # number of ReadSharedReq accesses(hits+misses)
system.l2.ReadSharedReq_accesses::total         39925                       # number of ReadSharedReq accesses(hits+misses)
system.l2.demand_accesses::cpu.inst               755                       # number of demand (read+write) accesses
system.l2.demand_accesses::cpu.data             47013                       # number of demand (read+write) accesses
system.l2.demand_accesses::total                47768                       # number of demand (read+write) accesses
system.l2.overall_accesses::cpu.inst              755                       # number of overall (read+write) accesses
system.l2.overall_accesses::cpu.data            47013                       # number of overall (read+write) accesses
system.l2.overall_accesses::total               47768                       # number of overall (read+write) accesses
system.l2.ReadExReq_miss_rate::cpu.data      0.961202                       # miss rate for ReadExReq accesses
system.l2.ReadExReq_miss_rate::total         0.961202                       # miss rate for ReadExReq accesses
system.l2.ReadCleanReq_miss_rate::cpu.inst     0.978808                       # miss rate for ReadCleanReq accesses
system.l2.ReadCleanReq_miss_rate::total      0.978808                       # miss rate for ReadCleanReq accesses
system.l2.ReadSharedReq_miss_rate::cpu.data     0.461616                       # miss rate for ReadSharedReq accesses
system.l2.ReadSharedReq_miss_rate::total     0.461616                       # miss rate for ReadSharedReq accesses
system.l2.demand_miss_rate::cpu.inst         0.978808                       # miss rate for demand accesses
system.l2.demand_miss_rate::cpu.data         0.536937                       # miss rate for demand accesses
system.l2.demand_miss_rate::total            0.543921                       # miss rate for demand accesses
system.l2.overall_miss_rate::cpu.inst        0.978808                       # miss rate for overall accesses
system.l2.overall_miss_rate::cpu.data        0.536937                       # miss rate for overall accesses
system.l2.overall_miss_rate::total           0.543921                       # miss rate for overall accesses
system.l2.ReadExReq_avg_miss_latency::cpu.data 224952.810803                       # average ReadExReq miss latency
system.l2.ReadExReq_avg_miss_latency::total 224952.810803                       # average ReadExReq miss latency
system.l2.ReadCleanReq_avg_miss_latency::cpu.inst 166460.081191                       # average ReadCleanReq miss latency
system.l2.ReadCleanReq_avg_miss_latency::total 166460.081191                       # average ReadCleanReq miss latency
system.l2.ReadSharedReq_avg_miss_latency::cpu.data 222861.964189                       # average ReadSharedReq miss latency
system.l2.ReadSharedReq_avg_miss_latency::total 222861.964189                       # average ReadSharedReq miss latency
system.l2.demand_avg_miss_latency::cpu.inst 166460.081191                       # average overall miss latency
system.l2.demand_avg_miss_latency::cpu.data 223426.276592                       # average overall miss latency
system.l2.demand_avg_miss_latency::total 221806.000308                       # average overall miss latency
system.l2.overall_avg_miss_latency::cpu.inst 166460.081191                       # average overall miss latency
system.l2.overall_avg_miss_latency::cpu.data 223426.276592                       # average overall miss latency
system.l2.overall_avg_miss_latency::total 221806.000308                       # average overall miss latency
system.l2.blocked_cycles::no_mshrs                  0                       # number of cycles access was blocked
system.l2.blocked_cycles::no_targets                0                       # number of cycles access was blocked
system.l2.blocked::no_mshrs                         0                       # number of cycles access was blocked
system.l2.blocked::no_targets                       0                       # number of cycles access was blocked
system.l2.avg_blocked_cycles::no_mshrs            nan                       # average number of cycles each access was blocked
system.l2.avg_blocked_cycles::no_targets          nan                       # average number of cycles each access was blocked
system.l2.writebacks::writebacks                22190                       # number of writebacks
system.l2.writebacks::total                     22190                       # number of writebacks
system.l2.CleanEvict_mshr_misses::writebacks           28                       # number of CleanEvict MSHR misses
system.l2.CleanEvict_mshr_misses::total            28                       # number of CleanEvict MSHR misses
system.l2.ReadExReq_mshr_misses::cpu.data         6813                       # number of ReadExReq MSHR misses
system.l2.ReadExReq_mshr_misses::total           6813                       # number of ReadExReq MSHR misses
system.l2.ReadCleanReq_mshr_misses::cpu.inst          739                       # number of ReadCleanReq MSHR misses
system.l2.ReadCleanReq_mshr_misses::total          739                       # number of ReadCleanReq MSHR misses
system.l2.ReadSharedReq_mshr_misses::cpu.data        18430                       # number of ReadSharedReq MSHR misses
system.l2.ReadSharedReq_mshr_misses::total        18430                       # number of ReadSharedReq MSHR misses
system.l2.demand_mshr_misses::cpu.inst            739                       # number of demand (read+write) MSHR misses
system.l2.demand_mshr_misses::cpu.data          25243                       # number of demand (read+write) MSHR misses
system.l2.demand_mshr_misses::total             25982                       # number of demand (read+write) MSHR misses
system.l2.overall_mshr_misses::cpu.inst           739                       # number of overall MSHR misses
system.l2.overall_mshr_misses::cpu.data         25243                       # number of overall MSHR misses
system.l2.overall_mshr_misses::total            25982                       # number of overall MSHR misses
system.l2.ReadExReq_mshr_miss_latency::cpu.data   1464473500                       # number of ReadExReq MSHR miss cycles
system.l2.ReadExReq_mshr_miss_latency::total   1464473500                       # number of ReadExReq MSHR miss cycles
system.l2.ReadCleanReq_mshr_miss_latency::cpu.inst    115624000                       # number of ReadCleanReq MSHR miss cycles
system.l2.ReadCleanReq_mshr_miss_latency::total    115624000                       # number of ReadCleanReq MSHR miss cycles
system.l2.ReadSharedReq_mshr_miss_latency::cpu.data   3923046000                       # number of ReadSharedReq MSHR miss cycles
system.l2.ReadSharedReq_mshr_miss_latency::total   3923046000                       # number of ReadSharedReq MSHR miss cycles
system.l2.demand_mshr_miss_latency::cpu.inst    115624000                       # number of demand (read+write) MSHR miss cycles
system.l2.demand_mshr_miss_latency::cpu.data   5387519500                       # number of demand (read+write) MSHR miss cycles
system.l2.demand_mshr_miss_latency::total   5503143500                       # number of demand (read+write) MSHR miss cycles
system.l2.overall_mshr_miss_latency::cpu.inst    115624000                       # number of overall MSHR miss cycles
system.l2.overall_mshr_miss_latency::cpu.data   5387519500                       # number of overall MSHR miss cycles
system.l2.overall_mshr_miss_latency::total   5503143500                       # number of overall MSHR miss cycles
system.l2.CleanEvict_mshr_miss_rate::writebacks          inf                       # mshr miss rate for CleanEvict accesses
system.l2.CleanEvict_mshr_miss_rate::total          inf                       # mshr miss rate for CleanEvict accesses
system.l2.ReadExReq_mshr_miss_rate::cpu.data     0.961202                       # mshr miss rate for ReadExReq accesses
system.l2.ReadExReq_mshr_miss_rate::total     0.961202                       # mshr miss rate for ReadExReq accesses
system.l2.ReadCleanReq_mshr_miss_rate::cpu.inst     0.978808                       # mshr miss rate for ReadCleanReq accesses
system.l2.ReadCleanReq_mshr_miss_rate::total     0.978808                       # mshr miss rate for ReadCleanReq accesses
system.l2.ReadSharedReq_mshr_miss_rate::cpu.data     0.461616                       # mshr miss rate for ReadSharedReq accesses
system.l2.ReadSharedReq_mshr_miss_rate::total     0.461616                       # mshr miss rate for ReadSharedReq accesses
system.l2.demand_mshr_miss_rate::cpu.inst     0.978808                       # mshr miss rate for demand accesses
system.l2.demand_mshr_miss_rate::cpu.data     0.536937                       # mshr miss rate for demand accesses
system.l2.demand_mshr_miss_rate::total       0.543921                       # mshr miss rate for demand accesses
system.l2.overall_mshr_miss_rate::cpu.inst     0.978808                       # mshr miss rate for overall accesses
system.l2.overall_mshr_miss_rate::cpu.data     0.536937                       # mshr miss rate for overall accesses
system.l2.overall_mshr_miss_rate::total      0.543921                       # mshr miss rate for overall accesses
system.l2.ReadExReq_avg_mshr_miss_latency::cpu.data 214952.810803                       # average ReadExReq mshr miss latency
system.l2.ReadExReq_avg_mshr_miss_latency::total 214952.810803                       # average ReadExReq mshr miss latency
system.l2.ReadCleanReq_avg_mshr_miss_latency::cpu.inst 156460.081191                       # average ReadCleanReq mshr miss latency
system.l2.ReadCleanReq_avg_mshr_miss_latency::total 156460.081191                       # average ReadCleanReq mshr miss latency
system.l2.ReadSharedReq_avg_mshr_miss_latency::cpu.data 212861.964189                       # average ReadSharedReq mshr miss latency
system.l2.ReadSharedReq_avg_mshr_miss_latency::total 212861.964189                       # average ReadSharedReq mshr miss latency
system.l2.demand_avg_mshr_miss_latency::cpu.inst 156460.081191                       # average overall mshr miss latency
system.l2.demand_avg_mshr_miss_latency::cpu.data 213426.276592                       # average overall mshr miss latency
system.l2.demand_avg_mshr_miss_latency::total 211806.000308                       # average overall mshr miss latency
system.l2.overall_avg_mshr_miss_latency::cpu.inst 156460.081191                       # average overall mshr miss latency
system.l2.overall_avg_mshr_miss_latency::cpu.data 213426.276592                       # average overall mshr miss latency
system.l2.overall_avg_mshr_miss_latency::total 211806.000308                       # average overall mshr miss latency
system.l2.replacements                          24118                       # number of replacements
system.l3.tags.pwrStateResidencyTicks::UNDEFINED  92502332500                       # Cumulative time (in ticks) in various power states
system.l3.tags.tagsinuse                  4007.244816                       # Cycle average of tags in use
system.l3.tags.total_refs                       49143                       # Total number of references to valid blocks.
system.l3.tags.sampled_refs                     23460                       # Sample count of references to valid blocks.
system.l3.tags.avg_refs                      2.094757                       # Average number of references to valid blocks.
system.l3.tags.warmup_cycle                    418000                       # Cycle when the warmup percentage was hit.
system.l3.tags.occ_blocks::writebacks      446.440895                       # Average occupied blocks per requestor
system.l3.tags.occ_blocks::cpu.inst         28.343524                       # Average occupied blocks per requestor
system.l3.tags.occ_blocks::cpu.data       3532.460397                       # Average occupied blocks per requestor
system.l3.tags.occ_percent::writebacks       0.108994                       # Average percentage of cache occupancy
system.l3.tags.occ_percent::cpu.inst         0.006920                       # Average percentage of cache occupancy
system.l3.tags.occ_percent::cpu.data         0.862417                       # Average percentage of cache occupancy
system.l3.tags.occ_percent::total            0.978331                       # Average percentage of cache occupancy
system.l3.tags.occ_task_id_blocks::1024          4096                       # Occupied blocks per task id
system.l3.tags.age_task_id_blocks_1024::0           33                       # Occupied blocks per task id
system.l3.tags.age_task_id_blocks_1024::1           83                       # Occupied blocks per task id
system.l3.tags.age_task_id_blocks_1024::3            3                       # Occupied blocks per task id
system.l3.tags.age_task_id_blocks_1024::4         3977                       # Occupied blocks per task id
system.l3.tags.occ_task_id_percent::1024            1                       # Percentage of cache occupancy per task id
system.l3.tags.tag_accesses                    122506                       # Number of tag accesses
system.l3.tags.data_accesses                   122506                       # Number of data accesses
system.l3.pwrStateResidencyTicks::UNDEFINED  92502332500                       # Cumulative time (in ticks) in various power states
system.l3.WritebackDirty_hits::writebacks        22190                       # number of WritebackDirty hits
system.l3.WritebackDirty_hits::total            22190                       # number of WritebackDirty hits
system.l3.ReadExReq_hits::cpu.data                 45                       # number of ReadExReq hits
system.l3.ReadExReq_hits::total                    45                       # number of ReadExReq hits
system.l3.ReadSharedReq_hits::cpu.inst              3                       # number of ReadSharedReq hits
system.l3.ReadSharedReq_hits::cpu.data           8350                       # number of ReadSharedReq hits
system.l3.ReadSharedReq_hits::total              8353                       # number of ReadSharedReq hits
system.l3.demand_hits::cpu.inst                     3                       # number of demand (read+write) hits
system.l3.demand_hits::cpu.data                  8395                       # number of demand (read+write) hits
system.l3.demand_hits::total                     8398                       # number of demand (read+write) hits
system.l3.overall_hits::cpu.inst                    3                       # number of overall hits
system.l3.overall_hits::cpu.data                 8395                       # number of overall hits
system.l3.overall_hits::total                    8398                       # number of overall hits
system.l3.ReadExReq_misses::cpu.data             6768                       # number of ReadExReq misses
system.l3.ReadExReq_misses::total                6768                       # number of ReadExReq misses
system.l3.ReadSharedReq_misses::cpu.inst          736                       # number of ReadSharedReq misses
system.l3.ReadSharedReq_misses::cpu.data        10080                       # number of ReadSharedReq misses
system.l3.ReadSharedReq_misses::total           10816                       # number of ReadSharedReq misses
system.l3.demand_misses::cpu.inst                 736                       # number of demand (read+write) misses
system.l3.demand_misses::cpu.data               16848                       # number of demand (read+write) misses
system.l3.demand_misses::total                  17584                       # number of demand (read+write) misses
system.l3.overall_misses::cpu.inst                736                       # number of overall misses
system.l3.overall_misses::cpu.data              16848                       # number of overall misses
system.l3.overall_misses::total                 17584                       # number of overall misses
system.l3.ReadExReq_miss_latency::cpu.data   1378748500                       # number of ReadExReq miss cycles
system.l3.ReadExReq_miss_latency::total    1378748500                       # number of ReadExReq miss cycles
system.l3.ReadSharedReq_miss_latency::cpu.inst    106349000                       # number of ReadSharedReq miss cycles
system.l3.ReadSharedReq_miss_latency::cpu.data   3588296000                       # number of ReadSharedReq miss cycles
system.l3.ReadSharedReq_miss_latency::total   3694645000                       # number of ReadSharedReq miss cycles
system.l3.demand_miss_latency::cpu.inst     106349000                       # number of demand (read+write) miss cycles
system.l3.demand_miss_latency::cpu.data    4967044500                       # number of demand (read+write) miss cycles
system.l3.demand_miss_latency::total       5073393500                       # number of demand (read+write) miss cycles
system.l3.overall_miss_latency::cpu.inst    106349000                       # number of overall miss cycles
system.l3.overall_miss_latency::cpu.data   4967044500                       # number of overall miss cycles
system.l3.overall_miss_latency::total      5073393500                       # number of overall miss cycles
system.l3.WritebackDirty_accesses::writebacks        22190                       # number of WritebackDirty accesses(hits+misses)
system.l3.WritebackDirty_accesses::total        22190                       # number of WritebackDirty accesses(hits+misses)
system.l3.ReadExReq_accesses::cpu.data           6813                       # number of ReadExReq accesses(hits+misses)
system.l3.ReadExReq_accesses::total              6813                       # number of ReadExReq accesses(hits+misses)
system.l3.ReadSharedReq_accesses::cpu.inst          739                       # number of ReadSharedReq accesses(hits+misses)
system.l3.ReadSharedReq_accesses::cpu.data        18430                       # number of ReadSharedReq accesses(hits+misses)
system.l3.ReadSharedReq_accesses::total         19169                       # number of ReadSharedReq accesses(hits+misses)
system.l3.demand_accesses::cpu.inst               739                       # number of demand (read+write) accesses
system.l3.demand_accesses::cpu.data             25243                       # number of demand (read+write) accesses
system.l3.demand_accesses::total                25982                       # number of demand (read+write) accesses
system.l3.overall_accesses::cpu.inst              739                       # number of overall (read+write) accesses
system.l3.overall_accesses::cpu.data            25243                       # number of overall (read+write) accesses
system.l3.overall_accesses::total               25982                       # number of overall (read+write) accesses
system.l3.ReadExReq_miss_rate::cpu.data      0.993395                       # miss rate for ReadExReq accesses
system.l3.ReadExReq_miss_rate::total         0.993395                       # miss rate for ReadExReq accesses
system.l3.ReadSharedReq_miss_rate::cpu.inst     0.995940                       # miss rate for ReadSharedReq accesses
system.l3.ReadSharedReq_miss_rate::cpu.data     0.546934                       # miss rate for ReadSharedReq accesses
system.l3.ReadSharedReq_miss_rate::total     0.564244                       # miss rate for ReadSharedReq accesses
system.l3.demand_miss_rate::cpu.inst         0.995940                       # miss rate for demand accesses
system.l3.demand_miss_rate::cpu.data         0.667433                       # miss rate for demand accesses
system.l3.demand_miss_rate::total            0.676776                       # miss rate for demand accesses
system.l3.overall_miss_rate::cpu.inst        0.995940                       # miss rate for overall accesses
system.l3.overall_miss_rate::cpu.data        0.667433                       # miss rate for overall accesses
system.l3.overall_miss_rate::total           0.676776                       # miss rate for overall accesses
system.l3.ReadExReq_avg_miss_latency::cpu.data 203715.794917                       # average ReadExReq miss latency
system.l3.ReadExReq_avg_miss_latency::total 203715.794917                       # average ReadExReq miss latency
system.l3.ReadSharedReq_avg_miss_latency::cpu.inst 144495.923913                       # average ReadSharedReq miss latency
system.l3.ReadSharedReq_avg_miss_latency::cpu.data 355981.746032                       # average ReadSharedReq miss latency
system.l3.ReadSharedReq_avg_miss_latency::total 341590.698964                       # average ReadSharedReq miss latency
system.l3.demand_avg_miss_latency::cpu.inst 144495.923913                       # average overall miss latency
system.l3.demand_avg_miss_latency::cpu.data 294815.081909                       # average overall miss latency
system.l3.demand_avg_miss_latency::total 288523.288217                       # average overall miss latency
system.l3.overall_avg_miss_latency::cpu.inst 144495.923913                       # average overall miss latency
system.l3.overall_avg_miss_latency::cpu.data 294815.081909                       # average overall miss latency
system.l3.overall_avg_miss_latency::total 288523.288217                       # average overall miss latency
system.l3.blocked_cycles::no_mshrs                  0                       # number of cycles access was blocked
system.l3.blocked_cycles::no_targets                0                       # number of cycles access was blocked
system.l3.blocked::no_mshrs                         0                       # number of cycles access was blocked
system.l3.blocked::no_targets                       0                       # number of cycles access was blocked
system.l3.avg_blocked_cycles::no_mshrs            nan                       # average number of cycles each access was blocked
system.l3.avg_blocked_cycles::no_targets          nan                       # average number of cycles each access was blocked
system.l3.writebacks::writebacks                11675                       # number of writebacks
system.l3.writebacks::total                     11675                       # number of writebacks
system.l3.CleanEvict_mshr_misses::writebacks          380                       # number of CleanEvict MSHR misses
system.l3.CleanEvict_mshr_misses::total           380                       # number of CleanEvict MSHR misses
system.l3.ReadExReq_mshr_misses::cpu.data         6768                       # number of ReadExReq MSHR misses
system.l3.ReadExReq_mshr_misses::total           6768                       # number of ReadExReq MSHR misses
system.l3.ReadSharedReq_mshr_misses::cpu.inst          736                       # number of ReadSharedReq MSHR misses
system.l3.ReadSharedReq_mshr_misses::cpu.data        10080                       # number of ReadSharedReq MSHR misses
system.l3.ReadSharedReq_mshr_misses::total        10816                       # number of ReadSharedReq MSHR misses
system.l3.demand_mshr_misses::cpu.inst            736                       # number of demand (read+write) MSHR misses
system.l3.demand_mshr_misses::cpu.data          16848                       # number of demand (read+write) MSHR misses
system.l3.demand_mshr_misses::total             17584                       # number of demand (read+write) MSHR misses
system.l3.overall_mshr_misses::cpu.inst           736                       # number of overall MSHR misses
system.l3.overall_mshr_misses::cpu.data         16848                       # number of overall MSHR misses
system.l3.overall_mshr_misses::total            17584                       # number of overall MSHR misses
system.l3.ReadExReq_mshr_miss_latency::cpu.data   1311068500                       # number of ReadExReq MSHR miss cycles
system.l3.ReadExReq_mshr_miss_latency::total   1311068500                       # number of ReadExReq MSHR miss cycles
system.l3.ReadSharedReq_mshr_miss_latency::cpu.inst     98989000                       # number of ReadSharedReq MSHR miss cycles
system.l3.ReadSharedReq_mshr_miss_latency::cpu.data   3487496000                       # number of ReadSharedReq MSHR miss cycles
system.l3.ReadSharedReq_mshr_miss_latency::total   3586485000                       # number of ReadSharedReq MSHR miss cycles
system.l3.demand_mshr_miss_latency::cpu.inst     98989000                       # number of demand (read+write) MSHR miss cycles
system.l3.demand_mshr_miss_latency::cpu.data   4798564500                       # number of demand (read+write) MSHR miss cycles
system.l3.demand_mshr_miss_latency::total   4897553500                       # number of demand (read+write) MSHR miss cycles
system.l3.overall_mshr_miss_latency::cpu.inst     98989000                       # number of overall MSHR miss cycles
system.l3.overall_mshr_miss_latency::cpu.data   4798564500                       # number of overall MSHR miss cycles
system.l3.overall_mshr_miss_latency::total   4897553500                       # number of overall MSHR miss cycles
system.l3.CleanEvict_mshr_miss_rate::writebacks          inf                       # mshr miss rate for CleanEvict accesses
system.l3.CleanEvict_mshr_miss_rate::total          inf                       # mshr miss rate for CleanEvict accesses
system.l3.ReadExReq_mshr_miss_rate::cpu.data     0.993395                       # mshr miss rate for ReadExReq accesses
system.l3.ReadExReq_mshr_miss_rate::total     0.993395                       # mshr miss rate for ReadExReq accesses
system.l3.ReadSharedReq_mshr_miss_rate::cpu.inst     0.995940                       # mshr miss rate for ReadSharedReq accesses
system.l3.ReadSharedReq_mshr_miss_rate::cpu.data     0.546934                       # mshr miss rate for ReadSharedReq accesses
system.l3.ReadSharedReq_mshr_miss_rate::total     0.564244                       # mshr miss rate for ReadSharedReq accesses
system.l3.demand_mshr_miss_rate::cpu.inst     0.995940                       # mshr miss rate for demand accesses
system.l3.demand_mshr_miss_rate::cpu.data     0.667433                       # mshr miss rate for demand accesses
system.l3.demand_mshr_miss_rate::total       0.676776                       # mshr miss rate for demand accesses
system.l3.overall_mshr_miss_rate::cpu.inst     0.995940                       # mshr miss rate for overall accesses
system.l3.overall_mshr_miss_rate::cpu.data     0.667433                       # mshr miss rate for overall accesses
system.l3.overall_mshr_miss_rate::total      0.676776                       # mshr miss rate for overall accesses
system.l3.ReadExReq_avg_mshr_miss_latency::cpu.data 193715.794917                       # average ReadExReq mshr miss latency
system.l3.ReadExReq_avg_mshr_miss_latency::total 193715.794917                       # average ReadExReq mshr miss latency
system.l3.ReadSharedReq_avg_mshr_miss_latency::cpu.inst 134495.923913                       # average ReadSharedReq mshr miss latency
system.l3.ReadSharedReq_avg_mshr_miss_latency::cpu.data 345981.746032                       # average ReadSharedReq mshr miss latency
system.l3.ReadSharedReq_avg_mshr_miss_latency::total 331590.698964                       # average ReadSharedReq mshr miss latency
system.l3.demand_avg_mshr_miss_latency::cpu.inst 134495.923913                       # average overall mshr miss latency
system.l3.demand_avg_mshr_miss_latency::cpu.data 284815.081909                       # average overall mshr miss latency
system.l3.demand_avg_mshr_miss_latency::total 278523.288217                       # average overall mshr miss latency
system.l3.overall_avg_mshr_miss_latency::cpu.inst 134495.923913                       # average overall mshr miss latency
system.l3.overall_avg_mshr_miss_latency::cpu.data 284815.081909                       # average overall mshr miss latency
system.l3.overall_avg_mshr_miss_latency::total 278523.288217                       # average overall mshr miss latency
system.l3.replacements                          19364                       # number of replacements
system.membus.snoop_filter.tot_requests         31855                       # Total number of requests made to the snoop filter.
system.membus.snoop_filter.hit_single_requests        14271                       # Number of requests hitting in the snoop filter with a single holder of the requested data.
system.membus.snoop_filter.hit_multi_requests            0                       # Number of requests hitting in the snoop filter with multiple (>1) holders of the requested data.
system.membus.snoop_filter.tot_snoops               0                       # Total number of snoops made to the snoop filter.
system.membus.snoop_filter.hit_single_snoops            0                       # Number of snoops hitting in the snoop filter with a single holder of the requested data.
system.membus.snoop_filter.hit_multi_snoops            0                       # Number of snoops hitting in the snoop filter with multiple (>1) holders of the requested data.
system.membus.pwrStateResidencyTicks::UNDEFINED  92502332500                       # Cumulative time (in ticks) in various power states
system.membus.trans_dist::ReadResp              10816                       # Transaction distribution
system.membus.trans_dist::WritebackDirty        11675                       # Transaction distribution
system.membus.trans_dist::CleanEvict             1294                       # Transaction distribution
system.membus.trans_dist::ReadExReq              6768                       # Transaction distribution
system.membus.trans_dist::ReadExResp             6768                       # Transaction distribution
system.membus.trans_dist::ReadSharedReq         10816                       # Transaction distribution
system.membus.pkt_count_system.l3.mem_side::system.mem_ctrls.port        48137                       # Packet count per connected master and slave (bytes)
system.membus.pkt_count_system.l3.mem_side::total        48137                       # Packet count per connected master and slave (bytes)
system.membus.pkt_count::total                  48137                       # Packet count per connected master and slave (bytes)
system.membus.pkt_size_system.l3.mem_side::system.mem_ctrls.port      1872576                       # Cumulative packet size per connected master and slave (bytes)
system.membus.pkt_size_system.l3.mem_side::total      1872576                       # Cumulative packet size per connected master and slave (bytes)
system.membus.pkt_size::total                 1872576                       # Cumulative packet size per connected master and slave (bytes)
system.membus.snoops                                0                       # Total snoops (count)
system.membus.snoopTraffic                          0                       # Total snoop traffic (bytes)
system.membus.snoop_fanout::samples             17584                       # Request fanout histogram
system.membus.snoop_fanout::mean                    0                       # Request fanout histogram
system.membus.snoop_fanout::stdev                   0                       # Request fanout histogram
system.membus.snoop_fanout::underflows              0      0.00%      0.00% # Request fanout histogram
system.membus.snoop_fanout::0                   17584    100.00%    100.00% # Request fanout histogram
system.membus.snoop_fanout::1                       0      0.00%    100.00% # Request fanout histogram
system.membus.snoop_fanout::overflows               0      0.00%    100.00% # Request fanout histogram
system.membus.snoop_fanout::min_value               0                       # Request fanout histogram
system.membus.snoop_fanout::max_value               0                       # Request fanout histogram
system.membus.snoop_fanout::total               17584                       # Request fanout histogram
system.membus.reqLayer2.occupancy            89479500                       # Layer occupancy (ticks)
system.membus.reqLayer2.utilization               0.1                       # Layer utilization (%)
system.membus.respLayer1.occupancy           96073500                       # Layer occupancy (ticks)
system.membus.respLayer1.utilization              0.1                       # Layer utilization (%)
system.tol2bus.snoop_filter.tot_requests       101870                       # Total number of requests made to the snoop filter.
system.tol2bus.snoop_filter.hit_single_requests        54102                       # Number of requests hitting in the snoop filter with a single holder of the requested data.
system.tol2bus.snoop_filter.hit_multi_requests            1                       # Number of requests hitting in the snoop filter with multiple (>1) holders of the requested data.
system.tol2bus.snoop_filter.tot_snoops           1612                       # Total number of snoops made to the snoop filter.
system.tol2bus.snoop_filter.hit_single_snoops         1612                       # Number of snoops hitting in the snoop filter with a single holder of the requested data.
system.tol2bus.snoop_filter.hit_multi_snoops            0                       # Number of snoops hitting in the snoop filter with multiple (>1) holders of the requested data.
system.tol2bus.pwrStateResidencyTicks::UNDEFINED  92502332500                       # Cumulative time (in ticks) in various power states
system.tol2bus.trans_dist::ReadResp             40680                       # Transaction distribution
system.tol2bus.trans_dist::WritebackDirty        77806                       # Transaction distribution
system.tol2bus.trans_dist::WritebackClean          305                       # Transaction distribution
system.tol2bus.trans_dist::CleanEvict           12177                       # Transaction distribution
system.tol2bus.trans_dist::UpgradeReq            7296                       # Transaction distribution
system.tol2bus.trans_dist::UpgradeResp           7296                       # Transaction distribution
system.tol2bus.trans_dist::ReadExReq             7088                       # Transaction distribution
system.tol2bus.trans_dist::ReadExResp            7088                       # Transaction distribution
system.tol2bus.trans_dist::ReadCleanReq           755                       # Transaction distribution
system.tol2bus.trans_dist::ReadSharedReq        39925                       # Transaction distribution
system.tol2bus.pkt_count_system.cpu.icache.mem_side::system.l2.cpu_side         1815                       # Packet count per connected master and slave (bytes)
system.tol2bus.pkt_count_system.cpu.dcache.mem_side::system.l2.cpu_side       155119                       # Packet count per connected master and slave (bytes)
system.tol2bus.pkt_count::total                156934                       # Packet count per connected master and slave (bytes)
system.tol2bus.pkt_size_system.cpu.icache.mem_side::system.l2.cpu_side        67840                       # Cumulative packet size per connected master and slave (bytes)
system.tol2bus.pkt_size_system.cpu.dcache.mem_side::system.l2.cpu_side      5821056                       # Cumulative packet size per connected master and slave (bytes)
system.tol2bus.pkt_size::total                5888896                       # Cumulative packet size per connected master and slave (bytes)
system.tol2bus.snoops                           43482                       # Total snoops (count)
system.tol2bus.snoopTraffic                   2167360                       # Total snoop traffic (bytes)
system.tol2bus.snoop_fanout::samples            98546                       # Request fanout histogram
system.tol2bus.snoop_fanout::mean            0.016368                       # Request fanout histogram
system.tol2bus.snoop_fanout::stdev           0.126887                       # Request fanout histogram
system.tol2bus.snoop_fanout::underflows             0      0.00%      0.00% # Request fanout histogram
system.tol2bus.snoop_fanout::0                  96933     98.36%     98.36% # Request fanout histogram
system.tol2bus.snoop_fanout::1                   1613      1.64%    100.00% # Request fanout histogram
system.tol2bus.snoop_fanout::2                      0      0.00%    100.00% # Request fanout histogram
system.tol2bus.snoop_fanout::3                      0      0.00%    100.00% # Request fanout histogram
system.tol2bus.snoop_fanout::4                      0      0.00%    100.00% # Request fanout histogram
system.tol2bus.snoop_fanout::overflows              0      0.00%    100.00% # Request fanout histogram
system.tol2bus.snoop_fanout::min_value              0                       # Request fanout histogram
system.tol2bus.snoop_fanout::max_value              1                       # Request fanout histogram
system.tol2bus.snoop_fanout::total              98546                       # Request fanout histogram
system.tol2bus.reqLayer0.occupancy           95181000                       # Layer occupancy (ticks)
system.tol2bus.reqLayer0.utilization              0.1                       # Layer utilization (%)
system.tol2bus.respLayer0.occupancy           1132500                       # Layer occupancy (ticks)
system.tol2bus.respLayer0.utilization             0.0                       # Layer utilization (%)
system.tol2bus.respLayer1.occupancy          74167500                       # Layer occupancy (ticks)
system.tol2bus.respLayer1.utilization             0.1                       # Layer utilization (%)
system.tol3bus.pwrStateResidencyTicks::UNDEFINED  92502332500                       # Cumulative time (in ticks) in various power states
system.tol3bus.trans_dist::ReadResp             19169                       # Transaction distribution
system.tol3bus.trans_dist::WritebackDirty        33865                       # Transaction distribution
system.tol3bus.trans_dist::CleanEvict            9040                       # Transaction distribution
system.tol3bus.trans_dist::ReadExReq             6813                       # Transaction distribution
system.tol3bus.trans_dist::ReadExResp            6813                       # Transaction distribution
system.tol3bus.trans_dist::ReadSharedReq        19169                       # Transaction distribution
system.tol3bus.pkt_count_system.l2.mem_side::system.l3.cpu_side        75505                       # Packet count per connected master and slave (bytes)
system.tol3bus.pkt_size_system.l2.mem_side::system.l3.cpu_side      3083008                       # Cumulative packet size per connected master and slave (bytes)
system.tol3bus.snoops                           19364                       # Total snoops (count)
system.tol3bus.snoopTraffic                    747200                       # Total snoop traffic (bytes)
system.tol3bus.snoop_fanout::samples            68887                       # Request fanout histogram
system.tol3bus.snoop_fanout::mean            0.281098                       # Request fanout histogram
system.tol3bus.snoop_fanout::stdev           0.449538                       # Request fanout histogram
system.tol3bus.snoop_fanout::underflows             0      0.00%      0.00% # Request fanout histogram
system.tol3bus.snoop_fanout::0                  49523     71.89%     71.89% # Request fanout histogram
system.tol3bus.snoop_fanout::1                  19364     28.11%    100.00% # Request fanout histogram
system.tol3bus.snoop_fanout::overflows              0      0.00%    100.00% # Request fanout histogram
system.tol3bus.snoop_fanout::min_value              0                       # Request fanout histogram
system.tol3bus.snoop_fanout::max_value              1                       # Request fanout histogram
system.tol3bus.snoop_fanout::total              68887                       # Request fanout histogram
system.tol3bus.reqLayer0.occupancy           35856500                       # Layer occupancy (ticks)
system.tol3bus.reqLayer0.utilization              0.0                       # Layer utilization (%)
system.tol3bus.respLayer0.occupancy          25982000                       # Layer occupancy (ticks)
system.tol3bus.respLayer0.utilization             0.0                       # Layer utilization (%)

---------- End Simulation Statistics   ----------
