
---------- Begin Simulation Statistics ----------
sim_seconds                                  0.088113                       # Number of seconds simulated
sim_ticks                                 88112783000                       # Number of ticks simulated
final_tick                                88112783000                       # Number of ticks from beginning of simulation (restored from checkpoints and never reset)
sim_freq                                 1000000000000                       # Frequency of simulated ticks
host_inst_rate                                 904462                       # Simulator instruction rate (inst/s)
host_op_rate                                  1493524                       # Simulator op (including micro ops) rate (op/s)
host_tick_rate                             1784171050                       # Simulator tick rate (ticks/s)
host_mem_usage                                 673752                       # Number of bytes of host memory used
host_seconds                                    49.39                       # Real time elapsed on the host
sim_insts                                    44667607                       # Number of instructions simulated
sim_ops                                      73758908                       # Number of ops (including micro ops) simulated
system.voltage_domain.voltage                       1                       # Voltage in Volts
system.clk_domain.clock                          1000                       # Clock period in ticks
system.mem_ctrls.pwrStateResidencyTicks::UNDEFINED  88112783000                       # Cumulative time (in ticks) in various power states
system.mem_ctrls.bytes_read::cpu.inst           46976                       # Number of bytes read from this memory
system.mem_ctrls.bytes_read::cpu.data          498432                       # Number of bytes read from this memory
system.mem_ctrls.bytes_read::total             545408                       # Number of bytes read from this memory
system.mem_ctrls.bytes_inst_read::cpu.inst        46976                       # Number of instructions bytes read from this memory
system.mem_ctrls.bytes_inst_read::total         46976                       # Number of instructions bytes read from this memory
system.mem_ctrls.bytes_written::writebacks         6400                       # Number of bytes written to this memory
system.mem_ctrls.bytes_written::total            6400                       # Number of bytes written to this memory
system.mem_ctrls.num_reads::cpu.inst              734                       # Number of read requests responded to by this memory
system.mem_ctrls.num_reads::cpu.data             7788                       # Number of read requests responded to by this memory
system.mem_ctrls.num_reads::total                8522                       # Number of read requests responded to by this memory
system.mem_ctrls.num_writes::writebacks           100                       # Number of write requests responded to by this memory
system.mem_ctrls.num_writes::total                100                       # Number of write requests responded to by this memory
system.mem_ctrls.bw_read::cpu.inst             533135                       # Total read bandwidth from this memory (bytes/s)
system.mem_ctrls.bw_read::cpu.data            5656750                       # Total read bandwidth from this memory (bytes/s)
system.mem_ctrls.bw_read::total               6189885                       # Total read bandwidth from this memory (bytes/s)
system.mem_ctrls.bw_inst_read::cpu.inst        533135                       # Instruction read bandwidth from this memory (bytes/s)
system.mem_ctrls.bw_inst_read::total           533135                       # Instruction read bandwidth from this memory (bytes/s)
system.mem_ctrls.bw_write::writebacks           72634                       # Write bandwidth from this memory (bytes/s)
system.mem_ctrls.bw_write::total                72634                       # Write bandwidth from this memory (bytes/s)
system.mem_ctrls.bw_total::writebacks           72634                       # Total bandwidth to/from this memory (bytes/s)
system.mem_ctrls.bw_total::cpu.inst            533135                       # Total bandwidth to/from this memory (bytes/s)
system.mem_ctrls.bw_total::cpu.data           5656750                       # Total bandwidth to/from this memory (bytes/s)
system.mem_ctrls.bw_total::total              6262519                       # Total bandwidth to/from this memory (bytes/s)
system.pwrStateResidencyTicks::UNDEFINED  88112783000                       # Cumulative time (in ticks) in various power states
system.cpu_voltage_domain.voltage                   1                       # Voltage in Volts
system.cpu_clk_domain.clock                       500                       # Clock period in ticks
system.cpu.dtb.walker.pwrStateResidencyTicks::UNDEFINED  88112783000                       # Cumulative time (in ticks) in various power states
system.cpu.dtb.rdAccesses                    20998408                       # TLB accesses on read requests
system.cpu.dtb.wrAccesses                     5824776                       # TLB accesses on write requests
system.cpu.dtb.rdMisses                           231                       # TLB misses on read requests
system.cpu.dtb.wrMisses                           111                       # TLB misses on write requests
system.cpu.apic_clk_domain.clock                 8000                       # Clock period in ticks
system.cpu.interrupts.pwrStateResidencyTicks::UNDEFINED  88112783000                       # Cumulative time (in ticks) in various power states
system.cpu.itb.walker.pwrStateResidencyTicks::UNDEFINED  88112783000                       # Cumulative time (in ticks) in various power states
system.cpu.itb.rdAccesses                           0                       # TLB accesses on read requests
system.cpu.itb.wrAccesses                    59528532                       # TLB accesses on write requests
system.cpu.itb.rdMisses                             0                       # TLB misses on read requests
system.cpu.itb.wrMisses                            78                       # TLB misses on write requests
system.cpu.workload.numSyscalls                    25                       # Number of system calls
system.cpu.pwrStateResidencyTicks::ON     88112783000                       # Cumulative time (in ticks) in various power states
system.cpu.numCycles                        176225566                       # number of cpu cycles simulated
system.cpu.numWorkItemsStarted                      0                       # number of work items this cpu started
system.cpu.numWorkItemsCompleted                    0                       # number of work items this cpu completed
system.cpu.committedInsts                    44667607                       # Number of instructions committed
system.cpu.committedOps                      73758908                       # Number of ops (including micro ops) committed
system.cpu.num_int_alu_accesses              73234925                       # Number of integer alu accesses
system.cpu.num_fp_alu_accesses                   4324                       # Number of float alu accesses
system.cpu.num_vec_alu_accesses                     0                       # Number of vector alu accesses
system.cpu.num_func_calls                      945812                       # number of times a function call or return occured
system.cpu.num_conditional_control_insts      4246113                       # number of instructions that are conditional controls
system.cpu.num_int_insts                     73234925                       # number of integer instructions
system.cpu.num_fp_insts                          4324                       # number of float instructions
system.cpu.num_vec_insts                            0                       # number of vector instructions
system.cpu.num_int_register_reads           164564264                       # number of times the integer registers were read
system.cpu.num_int_register_writes           63904152                       # number of times the integer registers were written
system.cpu.num_fp_register_reads                 6422                       # number of times the floating registers were read
system.cpu.num_fp_register_writes                3209                       # number of times the floating registers were written
system.cpu.num_vec_register_reads                   0                       # number of times the vector registers were read
system.cpu.num_vec_register_writes                  0                       # number of times the vector registers were written
system.cpu.num_cc_register_reads             27729338                       # number of times the CC registers were read
system.cpu.num_cc_register_writes            24993571                       # number of times the CC registers were written
system.cpu.num_mem_refs                      26823176                       # number of memory refs
system.cpu.num_load_insts                    20998400                       # Number of load instructions
system.cpu.num_store_insts                    5824776                       # Number of store instructions
system.cpu.num_idle_cycles                          0                       # Number of idle cycles
system.cpu.num_busy_cycles                  176225566                       # Number of busy cycles
system.cpu.not_idle_fraction                        1                       # Percentage of non-idle cycles
system.cpu.idle_fraction                            0                       # Percentage of idle cycles
system.cpu.Branches                           5689970                       # Number of branches fetched
system.cpu.op_class::No_OpClass                177072      0.24%      0.24% # Class of executed instruction
system.cpu.op_class::IntAlu                  45751849     62.03%     62.27% # Class of executed instruction
system.cpu.op_class::IntMult                       15      0.00%     62.27% # Class of executed instruction
system.cpu.op_class::IntDiv                   1004199      1.36%     63.63% # Class of executed instruction
system.cpu.op_class::FloatAdd                     132      0.00%     63.63% # Class of executed instruction
system.cpu.op_class::FloatCmp                       0      0.00%     63.63% # Class of executed instruction
system.cpu.op_class::FloatCvt                       0      0.00%     63.63% # Class of executed instruction
system.cpu.op_class::FloatMult                      0      0.00%     63.63% # Class of executed instruction
system.cpu.op_class::FloatMultAcc                   0      0.00%     63.63% # Class of executed instruction
system.cpu.op_class::FloatDiv                       0      0.00%     63.63% # Class of executed instruction
system.cpu.op_class::FloatMisc                      0      0.00%     63.63% # Class of executed instruction
system.cpu.op_class::FloatSqrt                      0      0.00%     63.63% # Class of executed instruction
system.cpu.op_class::SimdAdd                      348      0.00%     63.63% # Class of executed instruction
system.cpu.op_class::SimdAddAcc                     0      0.00%     63.63% # Class of executed instruction
system.cpu.op_class::SimdAlu                      682      0.00%     63.63% # Class of executed instruction
system.cpu.op_class::SimdCmp                        0      0.00%     63.63% # Class of executed instruction
system.cpu.op_class::SimdCvt                      776      0.00%     63.63% # Class of executed instruction
system.cpu.op_class::SimdMisc                     530      0.00%     63.63% # Class of executed instruction
system.cpu.op_class::SimdMult                       0      0.00%     63.63% # Class of executed instruction
system.cpu.op_class::SimdMultAcc                    0      0.00%     63.63% # Class of executed instruction
system.cpu.op_class::SimdShift                    129      0.00%     63.63% # Class of executed instruction
system.cpu.op_class::SimdShiftAcc                   0      0.00%     63.63% # Class of executed instruction
system.cpu.op_class::SimdSqrt                       0      0.00%     63.63% # Class of executed instruction
system.cpu.op_class::SimdFloatAdd                   0      0.00%     63.63% # Class of executed instruction
system.cpu.op_class::SimdFloatAlu                   0      0.00%     63.63% # Class of executed instruction
system.cpu.op_class::SimdFloatCmp                   0      0.00%     63.63% # Class of executed instruction
system.cpu.op_class::SimdFloatCvt                   0      0.00%     63.63% # Class of executed instruction
system.cpu.op_class::SimdFloatDiv                   0      0.00%     63.63% # Class of executed instruction
system.cpu.op_class::SimdFloatMisc                  0      0.00%     63.63% # Class of executed instruction
system.cpu.op_class::SimdFloatMult                  0      0.00%     63.63% # Class of executed instruction
system.cpu.op_class::SimdFloatMultAcc               0      0.00%     63.63% # Class of executed instruction
system.cpu.op_class::SimdFloatSqrt                  0      0.00%     63.63% # Class of executed instruction
system.cpu.op_class::MemRead                 20997422     28.47%     92.10% # Class of executed instruction
system.cpu.op_class::MemWrite                 5824086      7.90%    100.00% # Class of executed instruction
system.cpu.op_class::FloatMemRead                 978      0.00%    100.00% # Class of executed instruction
system.cpu.op_class::FloatMemWrite                690      0.00%    100.00% # Class of executed instruction
system.cpu.op_class::IprAccess                      0      0.00%    100.00% # Class of executed instruction
system.cpu.op_class::InstPrefetch                   0      0.00%    100.00% # Class of executed instruction
system.cpu.op_class::total                   73758908                       # Class of executed instruction
system.cpu.dcache.tags.pwrStateResidencyTicks::UNDEFINED  88112783000                       # Cumulative time (in ticks) in various power states
system.cpu.dcache.tags.tagsinuse           511.409922                       # Cycle average of tags in use
system.cpu.dcache.tags.total_refs            26823184                       # Total number of references to valid blocks.
system.cpu.dcache.tags.sampled_refs             47013                       # Sample count of references to valid blocks.
system.cpu.dcache.tags.avg_refs            570.548231                       # Average number of references to valid blocks.
system.cpu.dcache.tags.warmup_cycle            761500                       # Cycle when the warmup percentage was hit.
system.cpu.dcache.tags.occ_blocks::cpu.data   511.409922                       # Average occupied blocks per requestor
system.cpu.dcache.tags.occ_percent::cpu.data     0.998848                       # Average percentage of cache occupancy
system.cpu.dcache.tags.occ_percent::total     0.998848                       # Average percentage of cache occupancy
system.cpu.dcache.tags.occ_task_id_blocks::1024          512                       # Occupied blocks per task id
system.cpu.dcache.tags.age_task_id_blocks_1024::0           18                       # Occupied blocks per task id
system.cpu.dcache.tags.age_task_id_blocks_1024::1           38                       # Occupied blocks per task id
system.cpu.dcache.tags.age_task_id_blocks_1024::2           33                       # Occupied blocks per task id
system.cpu.dcache.tags.age_task_id_blocks_1024::3          421                       # Occupied blocks per task id
system.cpu.dcache.tags.age_task_id_blocks_1024::4            2                       # Occupied blocks per task id
system.cpu.dcache.tags.occ_task_id_percent::1024            1                       # Percentage of cache occupancy per task id
system.cpu.dcache.tags.tag_accesses          53693381                       # Number of tag accesses
system.cpu.dcache.tags.data_accesses         53693381                       # Number of data accesses
system.cpu.dcache.pwrStateResidencyTicks::UNDEFINED  88112783000                       # Cumulative time (in ticks) in various power states
system.cpu.dcache.ReadReq_hits::cpu.data     20958483                       # number of ReadReq hits
system.cpu.dcache.ReadReq_hits::total        20958483                       # number of ReadReq hits
system.cpu.dcache.WriteReq_hits::cpu.data      5801648                       # number of WriteReq hits
system.cpu.dcache.WriteReq_hits::total        5801648                       # number of WriteReq hits
system.cpu.dcache.demand_hits::cpu.data      26760131                       # number of demand (read+write) hits
system.cpu.dcache.demand_hits::total         26760131                       # number of demand (read+write) hits
system.cpu.dcache.overall_hits::cpu.data     26760131                       # number of overall hits
system.cpu.dcache.overall_hits::total        26760131                       # number of overall hits
system.cpu.dcache.ReadReq_misses::cpu.data        39925                       # number of ReadReq misses
system.cpu.dcache.ReadReq_misses::total         39925                       # number of ReadReq misses
system.cpu.dcache.WriteReq_misses::cpu.data        23128                       # number of WriteReq misses
system.cpu.dcache.WriteReq_misses::total        23128                       # number of WriteReq misses
system.cpu.dcache.demand_misses::cpu.data        63053                       # number of demand (read+write) misses
system.cpu.dcache.demand_misses::total          63053                       # number of demand (read+write) misses
system.cpu.dcache.overall_misses::cpu.data        63053                       # number of overall misses
system.cpu.dcache.overall_misses::total         63053                       # number of overall misses
system.cpu.dcache.ReadReq_miss_latency::cpu.data   1077468500                       # number of ReadReq miss cycles
system.cpu.dcache.ReadReq_miss_latency::total   1077468500                       # number of ReadReq miss cycles
system.cpu.dcache.WriteReq_miss_latency::cpu.data    631532500                       # number of WriteReq miss cycles
system.cpu.dcache.WriteReq_miss_latency::total    631532500                       # number of WriteReq miss cycles
system.cpu.dcache.demand_miss_latency::cpu.data   1709001000                       # number of demand (read+write) miss cycles
system.cpu.dcache.demand_miss_latency::total   1709001000                       # number of demand (read+write) miss cycles
system.cpu.dcache.overall_miss_latency::cpu.data   1709001000                       # number of overall miss cycles
system.cpu.dcache.overall_miss_latency::total   1709001000                       # number of overall miss cycles
system.cpu.dcache.ReadReq_accesses::cpu.data     20998408                       # number of ReadReq accesses(hits+misses)
system.cpu.dcache.ReadReq_accesses::total     20998408                       # number of ReadReq accesses(hits+misses)
system.cpu.dcache.WriteReq_accesses::cpu.data      5824776                       # number of WriteReq accesses(hits+misses)
system.cpu.dcache.WriteReq_accesses::total      5824776                       # number of WriteReq accesses(hits+misses)
system.cpu.dcache.demand_accesses::cpu.data     26823184                       # number of demand (read+write) accesses
system.cpu.dcache.demand_accesses::total     26823184                       # number of demand (read+write) accesses
system.cpu.dcache.overall_accesses::cpu.data     26823184                       # number of overall (read+write) accesses
system.cpu.dcache.overall_accesses::total     26823184                       # number of overall (read+write) accesses
system.cpu.dcache.ReadReq_miss_rate::cpu.data     0.001901                       # miss rate for ReadReq accesses
system.cpu.dcache.ReadReq_miss_rate::total     0.001901                       # miss rate for ReadReq accesses
system.cpu.dcache.WriteReq_miss_rate::cpu.data     0.003971                       # miss rate for WriteReq accesses
system.cpu.dcache.WriteReq_miss_rate::total     0.003971                       # miss rate for WriteReq accesses
system.cpu.dcache.demand_miss_rate::cpu.data     0.002351                       # miss rate for demand accesses
system.cpu.dcache.demand_miss_rate::total     0.002351                       # miss rate for demand accesses
system.cpu.dcache.overall_miss_rate::cpu.data     0.002351                       # miss rate for overall accesses
system.cpu.dcache.overall_miss_rate::total     0.002351                       # miss rate for overall accesses
system.cpu.dcache.ReadReq_avg_miss_latency::cpu.data 26987.313713                       # average ReadReq miss latency
system.cpu.dcache.ReadReq_avg_miss_latency::total 26987.313713                       # average ReadReq miss latency
system.cpu.dcache.WriteReq_avg_miss_latency::cpu.data 27305.971117                       # average WriteReq miss latency
system.cpu.dcache.WriteReq_avg_miss_latency::total 27305.971117                       # average WriteReq miss latency
system.cpu.dcache.demand_avg_miss_latency::cpu.data 27104.198056                       # average overall miss latency
system.cpu.dcache.demand_avg_miss_latency::total 27104.198056                       # average overall miss latency
system.cpu.dcache.overall_avg_miss_latency::cpu.data 27104.198056                       # average overall miss latency
system.cpu.dcache.overall_avg_miss_latency::total 27104.198056                       # average overall miss latency
system.cpu.dcache.blocked_cycles::no_mshrs            0                       # number of cycles access was blocked
system.cpu.dcache.blocked_cycles::no_targets            0                       # number of cycles access was blocked
system.cpu.dcache.blocked::no_mshrs                 0                       # number of cycles access was blocked
system.cpu.dcache.blocked::no_targets               0                       # number of cycles access was blocked
system.cpu.dcache.avg_blocked_cycles::no_mshrs          nan                       # average number of cycles each access was blocked
system.cpu.dcache.avg_blocked_cycles::no_targets          nan                       # average number of cycles each access was blocked
system.cpu.dcache.writebacks::writebacks        44103                       # number of writebacks
system.cpu.dcache.writebacks::total             44103                       # number of writebacks
system.cpu.dcache.ReadReq_mshr_misses::cpu.data        39925                       # number of ReadReq MSHR misses
system.cpu.dcache.ReadReq_mshr_misses::total        39925                       # number of ReadReq MSHR misses
system.cpu.dcache.WriteReq_mshr_misses::cpu.data        23128                       # number of WriteReq MSHR misses
system.cpu.dcache.WriteReq_mshr_misses::total        23128                       # number of WriteReq MSHR misses
system.cpu.dcache.demand_mshr_misses::cpu.data        63053                       # number of demand (read+write) MSHR misses
system.cpu.dcache.demand_mshr_misses::total        63053                       # number of demand (read+write) MSHR misses
system.cpu.dcache.overall_mshr_misses::cpu.data        63053                       # number of overall MSHR misses
system.cpu.dcache.overall_mshr_misses::total        63053                       # number of overall MSHR misses
system.cpu.dcache.ReadReq_mshr_miss_latency::cpu.data   1037543500                       # number of ReadReq MSHR miss cycles
system.cpu.dcache.ReadReq_mshr_miss_latency::total   1037543500                       # number of ReadReq MSHR miss cycles
system.cpu.dcache.WriteReq_mshr_miss_latency::cpu.data    608404500                       # number of WriteReq MSHR miss cycles
system.cpu.dcache.WriteReq_mshr_miss_latency::total    608404500                       # number of WriteReq MSHR miss cycles
system.cpu.dcache.demand_mshr_miss_latency::cpu.data   1645948000                       # number of demand (read+write) MSHR miss cycles
system.cpu.dcache.demand_mshr_miss_latency::total   1645948000                       # number of demand (read+write) MSHR miss cycles
system.cpu.dcache.overall_mshr_miss_latency::cpu.data   1645948000                       # number of overall MSHR miss cycles
system.cpu.dcache.overall_mshr_miss_latency::total   1645948000                       # number of overall MSHR miss cycles
system.cpu.dcache.ReadReq_mshr_miss_rate::cpu.data     0.001901                       # mshr miss rate for ReadReq accesses
system.cpu.dcache.ReadReq_mshr_miss_rate::total     0.001901                       # mshr miss rate for ReadReq accesses
system.cpu.dcache.WriteReq_mshr_miss_rate::cpu.data     0.003971                       # mshr miss rate for WriteReq accesses
system.cpu.dcache.WriteReq_mshr_miss_rate::total     0.003971                       # mshr miss rate for WriteReq accesses
system.cpu.dcache.demand_mshr_miss_rate::cpu.data     0.002351                       # mshr miss rate for demand accesses
system.cpu.dcache.demand_mshr_miss_rate::total     0.002351                       # mshr miss rate for demand accesses
system.cpu.dcache.overall_mshr_miss_rate::cpu.data     0.002351                       # mshr miss rate for overall accesses
system.cpu.dcache.overall_mshr_miss_rate::total     0.002351                       # mshr miss rate for overall accesses
system.cpu.dcache.ReadReq_avg_mshr_miss_latency::cpu.data 25987.313713                       # average ReadReq mshr miss latency
system.cpu.dcache.ReadReq_avg_mshr_miss_latency::total 25987.313713                       # average ReadReq mshr miss latency
system.cpu.dcache.WriteReq_avg_mshr_miss_latency::cpu.data 26305.971117                       # average WriteReq mshr miss latency
system.cpu.dcache.WriteReq_avg_mshr_miss_latency::total 26305.971117                       # average WriteReq mshr miss latency
system.cpu.dcache.demand_avg_mshr_miss_latency::cpu.data 26104.198056                       # average overall mshr miss latency
system.cpu.dcache.demand_avg_mshr_miss_latency::total 26104.198056                       # average overall mshr miss latency
system.cpu.dcache.overall_avg_mshr_miss_latency::cpu.data 26104.198056                       # average overall mshr miss latency
system.cpu.dcache.overall_avg_mshr_miss_latency::total 26104.198056                       # average overall mshr miss latency
system.cpu.dcache.replacements                  46501                       # number of replacements
system.cpu.dtb_walker_cache.tags.pwrStateResidencyTicks::UNDEFINED  88112783000                       # Cumulative time (in ticks) in various power states
system.cpu.dtb_walker_cache.tags.tagsinuse            0                       # Cycle average of tags in use
system.cpu.dtb_walker_cache.tags.total_refs            0                       # Total number of references to valid blocks.
system.cpu.dtb_walker_cache.tags.sampled_refs            0                       # Sample count of references to valid blocks.
system.cpu.dtb_walker_cache.tags.avg_refs          nan                       # Average number of references to valid blocks.
system.cpu.dtb_walker_cache.tags.warmup_cycle            0                       # Cycle when the warmup percentage was hit.
system.cpu.dtb_walker_cache.tags.tag_accesses            0                       # Number of tag accesses
system.cpu.dtb_walker_cache.tags.data_accesses            0                       # Number of data accesses
system.cpu.dtb_walker_cache.pwrStateResidencyTicks::UNDEFINED  88112783000                       # Cumulative time (in ticks) in various power states
system.cpu.dtb_walker_cache.blocked_cycles::no_mshrs            0                       # number of cycles access was blocked
system.cpu.dtb_walker_cache.blocked_cycles::no_targets            0                       # number of cycles access was blocked
system.cpu.dtb_walker_cache.blocked::no_mshrs            0                       # number of cycles access was blocked
system.cpu.dtb_walker_cache.blocked::no_targets            0                       # number of cycles access was blocked
system.cpu.dtb_walker_cache.avg_blocked_cycles::no_mshrs          nan                       # average number of cycles each access was blocked
system.cpu.dtb_walker_cache.avg_blocked_cycles::no_targets          nan                       # average number of cycles each access was blocked
system.cpu.dtb_walker_cache.replacements            0                       # number of replacements
system.cpu.icache.tags.pwrStateResidencyTicks::UNDEFINED  88112783000                       # Cumulative time (in ticks) in various power states
system.cpu.icache.tags.tagsinuse           439.182657                       # Cycle average of tags in use
system.cpu.icache.tags.total_refs            59528532                       # Total number of references to valid blocks.
system.cpu.icache.tags.sampled_refs               755                       # Sample count of references to valid blocks.
system.cpu.icache.tags.avg_refs          78845.737748                       # Average number of references to valid blocks.
system.cpu.icache.tags.warmup_cycle            440500                       # Cycle when the warmup percentage was hit.
system.cpu.icache.tags.occ_blocks::cpu.inst   439.182657                       # Average occupied blocks per requestor
system.cpu.icache.tags.occ_percent::cpu.inst     0.857779                       # Average percentage of cache occupancy
system.cpu.icache.tags.occ_percent::total     0.857779                       # Average percentage of cache occupancy
system.cpu.icache.tags.occ_task_id_blocks::1024          450                       # Occupied blocks per task id
system.cpu.icache.tags.age_task_id_blocks_1024::0           27                       # Occupied blocks per task id
system.cpu.icache.tags.age_task_id_blocks_1024::1           33                       # Occupied blocks per task id
system.cpu.icache.tags.age_task_id_blocks_1024::4          390                       # Occupied blocks per task id
system.cpu.icache.tags.occ_task_id_percent::1024     0.878906                       # Percentage of cache occupancy per task id
system.cpu.icache.tags.tag_accesses         119057819                       # Number of tag accesses
system.cpu.icache.tags.data_accesses        119057819                       # Number of data accesses
system.cpu.icache.pwrStateResidencyTicks::UNDEFINED  88112783000                       # Cumulative time (in ticks) in various power states
system.cpu.icache.ReadReq_hits::cpu.inst     59527777                       # number of ReadReq hits
system.cpu.icache.ReadReq_hits::total        59527777                       # number of ReadReq hits
system.cpu.icache.demand_hits::cpu.inst      59527777                       # number of demand (read+write) hits
system.cpu.icache.demand_hits::total         59527777                       # number of demand (read+write) hits
system.cpu.icache.overall_hits::cpu.inst     59527777                       # number of overall hits
system.cpu.icache.overall_hits::total        59527777                       # number of overall hits
system.cpu.icache.ReadReq_misses::cpu.inst          755                       # number of ReadReq misses
system.cpu.icache.ReadReq_misses::total           755                       # number of ReadReq misses
system.cpu.icache.demand_misses::cpu.inst          755                       # number of demand (read+write) misses
system.cpu.icache.demand_misses::total            755                       # number of demand (read+write) misses
system.cpu.icache.overall_misses::cpu.inst          755                       # number of overall misses
system.cpu.icache.overall_misses::total           755                       # number of overall misses
system.cpu.icache.ReadReq_miss_latency::cpu.inst    116193000                       # number of ReadReq miss cycles
system.cpu.icache.ReadReq_miss_latency::total    116193000                       # number of ReadReq miss cycles
system.cpu.icache.demand_miss_latency::cpu.inst    116193000                       # number of demand (read+write) miss cycles
system.cpu.icache.demand_miss_latency::total    116193000                       # number of demand (read+write) miss cycles
system.cpu.icache.overall_miss_latency::cpu.inst    116193000                       # number of overall miss cycles
system.cpu.icache.overall_miss_latency::total    116193000                       # number of overall miss cycles
system.cpu.icache.ReadReq_accesses::cpu.inst     59528532                       # number of ReadReq accesses(hits+misses)
system.cpu.icache.ReadReq_accesses::total     59528532                       # number of ReadReq accesses(hits+misses)
system.cpu.icache.demand_accesses::cpu.inst     59528532                       # number of demand (read+write) accesses
system.cpu.icache.demand_accesses::total     59528532                       # number of demand (read+write) accesses
system.cpu.icache.overall_accesses::cpu.inst     59528532                       # number of overall (read+write) accesses
system.cpu.icache.overall_accesses::total     59528532                       # number of overall (read+write) accesses
system.cpu.icache.ReadReq_miss_rate::cpu.inst     0.000013                       # miss rate for ReadReq accesses
system.cpu.icache.ReadReq_miss_rate::total     0.000013                       # miss rate for ReadReq accesses
system.cpu.icache.demand_miss_rate::cpu.inst     0.000013                       # miss rate for demand accesses
system.cpu.icache.demand_miss_rate::total     0.000013                       # miss rate for demand accesses
system.cpu.icache.overall_miss_rate::cpu.inst     0.000013                       # miss rate for overall accesses
system.cpu.icache.overall_miss_rate::total     0.000013                       # miss rate for overall accesses
system.cpu.icache.ReadReq_avg_miss_latency::cpu.inst 153898.013245                       # average ReadReq miss latency
system.cpu.icache.ReadReq_avg_miss_latency::total 153898.013245                       # average ReadReq miss latency
system.cpu.icache.demand_avg_miss_latency::cpu.inst 153898.013245                       # average overall miss latency
system.cpu.icache.demand_avg_miss_latency::total 153898.013245                       # average overall miss latency
system.cpu.icache.overall_avg_miss_latency::cpu.inst 153898.013245                       # average overall miss latency
system.cpu.icache.overall_avg_miss_latency::total 153898.013245                       # average overall miss latency
system.cpu.icache.blocked_cycles::no_mshrs            0                       # number of cycles access was blocked
system.cpu.icache.blocked_cycles::no_targets            0                       # number of cycles access was blocked
system.cpu.icache.blocked::no_mshrs                 0                       # number of cycles access was blocked
system.cpu.icache.blocked::no_targets               0                       # number of cycles access was blocked
system.cpu.icache.avg_blocked_cycles::no_mshrs          nan                       # average number of cycles each access was blocked
system.cpu.icache.avg_blocked_cycles::no_targets          nan                       # average number of cycles each access was blocked
system.cpu.icache.writebacks::writebacks          305                       # number of writebacks
system.cpu.icache.writebacks::total               305                       # number of writebacks
system.cpu.icache.ReadReq_mshr_misses::cpu.inst          755                       # number of ReadReq MSHR misses
system.cpu.icache.ReadReq_mshr_misses::total          755                       # number of ReadReq MSHR misses
system.cpu.icache.demand_mshr_misses::cpu.inst          755                       # number of demand (read+write) MSHR misses
system.cpu.icache.demand_mshr_misses::total          755                       # number of demand (read+write) MSHR misses
system.cpu.icache.overall_mshr_misses::cpu.inst          755                       # number of overall MSHR misses
system.cpu.icache.overall_mshr_misses::total          755                       # number of overall MSHR misses
system.cpu.icache.ReadReq_mshr_miss_latency::cpu.inst    115438000                       # number of ReadReq MSHR miss cycles
system.cpu.icache.ReadReq_mshr_miss_latency::total    115438000                       # number of ReadReq MSHR miss cycles
system.cpu.icache.demand_mshr_miss_latency::cpu.inst    115438000                       # number of demand (read+write) MSHR miss cycles
system.cpu.icache.demand_mshr_miss_latency::total    115438000                       # number of demand (read+write) MSHR miss cycles
system.cpu.icache.overall_mshr_miss_latency::cpu.inst    115438000                       # number of overall MSHR miss cycles
system.cpu.icache.overall_mshr_miss_latency::total    115438000                       # number of overall MSHR miss cycles
system.cpu.icache.ReadReq_mshr_miss_rate::cpu.inst     0.000013                       # mshr miss rate for ReadReq accesses
system.cpu.icache.ReadReq_mshr_miss_rate::total     0.000013                       # mshr miss rate for ReadReq accesses
system.cpu.icache.demand_mshr_miss_rate::cpu.inst     0.000013                       # mshr miss rate for demand accesses
system.cpu.icache.demand_mshr_miss_rate::total     0.000013                       # mshr miss rate for demand accesses
system.cpu.icache.overall_mshr_miss_rate::cpu.inst     0.000013                       # mshr miss rate for overall accesses
system.cpu.icache.overall_mshr_miss_rate::total     0.000013                       # mshr miss rate for overall accesses
system.cpu.icache.ReadReq_avg_mshr_miss_latency::cpu.inst 152898.013245                       # average ReadReq mshr miss latency
system.cpu.icache.ReadReq_avg_mshr_miss_latency::total 152898.013245                       # average ReadReq mshr miss latency
system.cpu.icache.demand_avg_mshr_miss_latency::cpu.inst 152898.013245                       # average overall mshr miss latency
system.cpu.icache.demand_avg_mshr_miss_latency::total 152898.013245                       # average overall mshr miss latency
system.cpu.icache.overall_avg_mshr_miss_latency::cpu.inst 152898.013245                       # average overall mshr miss latency
system.cpu.icache.overall_avg_mshr_miss_latency::total 152898.013245                       # average overall mshr miss latency
system.cpu.icache.replacements                    305                       # number of replacements
system.cpu.itb_walker_cache.tags.pwrStateResidencyTicks::UNDEFINED  88112783000                       # Cumulative time (in ticks) in various power states
system.cpu.itb_walker_cache.tags.tagsinuse            0                       # Cycle average of tags in use
system.cpu.itb_walker_cache.tags.total_refs            0                       # Total number of references to valid blocks.
system.cpu.itb_walker_cache.tags.sampled_refs            0                       # Sample count of references to valid blocks.
system.cpu.itb_walker_cache.tags.avg_refs          nan                       # Average number of references to valid blocks.
system.cpu.itb_walker_cache.tags.warmup_cycle            0                       # Cycle when the warmup percentage was hit.
system.cpu.itb_walker_cache.tags.tag_accesses            0                       # Number of tag accesses
system.cpu.itb_walker_cache.tags.data_accesses            0                       # Number of data accesses
system.cpu.itb_walker_cache.pwrStateResidencyTicks::UNDEFINED  88112783000                       # Cumulative time (in ticks) in various power states
system.cpu.itb_walker_cache.blocked_cycles::no_mshrs            0                       # number of cycles access was blocked
system.cpu.itb_walker_cache.blocked_cycles::no_targets            0                       # number of cycles access was blocked
system.cpu.itb_walker_cache.blocked::no_mshrs            0                       # number of cycles access was blocked
system.cpu.itb_walker_cache.blocked::no_targets            0                       # number of cycles access was blocked
system.cpu.itb_walker_cache.avg_blocked_cycles::no_mshrs          nan                       # average number of cycles each access was blocked
system.cpu.itb_walker_cache.avg_blocked_cycles::no_targets          nan                       # average number of cycles each access was blocked
system.cpu.itb_walker_cache.replacements            0                       # number of replacements
system.l2.tags.pwrStateResidencyTicks::UNDEFINED  88112783000                       # Cumulative time (in ticks) in various power states
system.l2.tags.tagsinuse                  2043.268569                       # Cycle average of tags in use
system.l2.tags.total_refs                      110585                       # Total number of references to valid blocks.
system.l2.tags.sampled_refs                     26166                       # Sample count of references to valid blocks.
system.l2.tags.avg_refs                      4.226286                       # Average number of references to valid blocks.
system.l2.tags.warmup_cycle                    430000                       # Cycle when the warmup percentage was hit.
system.l2.tags.occ_blocks::writebacks        4.861083                       # Average occupied blocks per requestor
system.l2.tags.occ_blocks::cpu.inst          9.227563                       # Average occupied blocks per requestor
system.l2.tags.occ_blocks::cpu.data       2029.179923                       # Average occupied blocks per requestor
system.l2.tags.occ_percent::writebacks       0.002374                       # Average percentage of cache occupancy
system.l2.tags.occ_percent::cpu.inst         0.004506                       # Average percentage of cache occupancy
system.l2.tags.occ_percent::cpu.data         0.990811                       # Average percentage of cache occupancy
system.l2.tags.occ_percent::total            0.997690                       # Average percentage of cache occupancy
system.l2.tags.occ_task_id_blocks::1024          2048                       # Occupied blocks per task id
system.l2.tags.age_task_id_blocks_1024::0           70                       # Occupied blocks per task id
system.l2.tags.age_task_id_blocks_1024::1           97                       # Occupied blocks per task id
system.l2.tags.age_task_id_blocks_1024::2           33                       # Occupied blocks per task id
system.l2.tags.age_task_id_blocks_1024::3           54                       # Occupied blocks per task id
system.l2.tags.age_task_id_blocks_1024::4         1794                       # Occupied blocks per task id
system.l2.tags.occ_task_id_percent::1024            1                       # Percentage of cache occupancy per task id
system.l2.tags.tag_accesses                    911070                       # Number of tag accesses
system.l2.tags.data_accesses                   911070                       # Number of data accesses
system.l2.pwrStateResidencyTicks::UNDEFINED  88112783000                       # Cumulative time (in ticks) in various power states
system.l2.WritebackDirty_hits::writebacks        44103                       # number of WritebackDirty hits
system.l2.WritebackDirty_hits::total            44103                       # number of WritebackDirty hits
system.l2.WritebackClean_hits::writebacks          305                       # number of WritebackClean hits
system.l2.WritebackClean_hits::total              305                       # number of WritebackClean hits
system.l2.UpgradeReq_hits::cpu.data             16040                       # number of UpgradeReq hits
system.l2.UpgradeReq_hits::total                16040                       # number of UpgradeReq hits
system.l2.ReadExReq_hits::cpu.data                275                       # number of ReadExReq hits
system.l2.ReadExReq_hits::total                   275                       # number of ReadExReq hits
system.l2.ReadCleanReq_hits::cpu.inst              16                       # number of ReadCleanReq hits
system.l2.ReadCleanReq_hits::total                 16                       # number of ReadCleanReq hits
system.l2.ReadSharedReq_hits::cpu.data          21495                       # number of ReadSharedReq hits
system.l2.ReadSharedReq_hits::total             21495                       # number of ReadSharedReq hits
system.l2.demand_hits::cpu.inst                    16                       # number of demand (read+write) hits
system.l2.demand_hits::cpu.data                 21770                       # number of demand (read+write) hits
system.l2.demand_hits::total                    21786                       # number of demand (read+write) hits
system.l2.overall_hits::cpu.inst                   16                       # number of overall hits
system.l2.overall_hits::cpu.data                21770                       # number of overall hits
system.l2.overall_hits::total                   21786                       # number of overall hits
system.l2.ReadExReq_misses::cpu.data             6813                       # number of ReadExReq misses
system.l2.ReadExReq_misses::total                6813                       # number of ReadExReq misses
system.l2.ReadCleanReq_misses::cpu.inst           739                       # number of ReadCleanReq misses
system.l2.ReadCleanReq_misses::total              739                       # number of ReadCleanReq misses
system.l2.ReadSharedReq_misses::cpu.data        18430                       # number of ReadSharedReq misses
system.l2.ReadSharedReq_misses::total           18430                       # number of ReadSharedReq misses
system.l2.demand_misses::cpu.inst                 739                       # number of demand (read+write) misses
system.l2.demand_misses::cpu.data               25243                       # number of demand (read+write) misses
system.l2.demand_misses::total                  25982                       # number of demand (read+write) misses
system.l2.overall_misses::cpu.inst                739                       # number of overall misses
system.l2.overall_misses::cpu.data              25243                       # number of overall misses
system.l2.overall_misses::total                 25982                       # number of overall misses
system.l2.ReadExReq_miss_latency::cpu.data    402401000                       # number of ReadExReq miss cycles
system.l2.ReadExReq_miss_latency::total     402401000                       # number of ReadExReq miss cycles
system.l2.ReadCleanReq_miss_latency::cpu.inst    114133500                       # number of ReadCleanReq miss cycles
system.l2.ReadCleanReq_miss_latency::total    114133500                       # number of ReadCleanReq miss cycles
system.l2.ReadSharedReq_miss_latency::cpu.data    751950000                       # number of ReadSharedReq miss cycles
system.l2.ReadSharedReq_miss_latency::total    751950000                       # number of ReadSharedReq miss cycles
system.l2.demand_miss_latency::cpu.inst     114133500                       # number of demand (read+write) miss cycles
system.l2.demand_miss_latency::cpu.data    1154351000                       # number of demand (read+write) miss cycles
system.l2.demand_miss_latency::total       1268484500                       # number of demand (read+write) miss cycles
system.l2.overall_miss_latency::cpu.inst    114133500                       # number of overall miss cycles
system.l2.overall_miss_latency::cpu.data   1154351000                       # number of overall miss cycles
system.l2.overall_miss_latency::total      1268484500                       # number of overall miss cycles
system.l2.WritebackDirty_accesses::writebacks        44103                       # number of WritebackDirty accesses(hits+misses)
system.l2.WritebackDirty_accesses::total        44103                       # number of WritebackDirty accesses(hits+misses)
system.l2.WritebackClean_accesses::writebacks          305                       # number of WritebackClean accesses(hits+misses)
system.l2.WritebackClean_accesses::total          305                       # number of WritebackClean accesses(hits+misses)
system.l2.UpgradeReq_accesses::cpu.data         16040                       # number of UpgradeReq accesses(hits+misses)
system.l2.UpgradeReq_accesses::total            16040                       # number of UpgradeReq accesses(hits+misses)
system.l2.ReadExReq_accesses::cpu.data           7088                       # number of ReadExReq accesses(hits+misses)
system.l2.ReadExReq_accesses::total              7088                       # number of ReadExReq accesses(hits+misses)
system.l2.ReadCleanReq_accesses::cpu.inst          755                       # number of ReadCleanReq accesses(hits+misses)
system.l2.ReadCleanReq_accesses::total            755                       # number of ReadCleanReq accesses(hits+misses)
system.l2.ReadSharedReq_accesses::cpu.data        39925                       # number of ReadSharedReq accesses(hits+misses)
system.l2.ReadSharedReq_accesses::total         39925                       # number of ReadSharedReq accesses(hits+misses)
system.l2.demand_accesses::cpu.inst               755                       # number of demand (read+write) accesses
system.l2.demand_accesses::cpu.data             47013                       # number of demand (read+write) accesses
system.l2.demand_accesses::total                47768                       # number of demand (read+write) accesses
system.l2.overall_accesses::cpu.inst              755                       # number of overall (read+write) accesses
system.l2.overall_accesses::cpu.data            47013                       # number of overall (read+write) accesses
system.l2.overall_accesses::total               47768                       # number of overall (read+write) accesses
system.l2.ReadExReq_miss_rate::cpu.data      0.961202                       # miss rate for ReadExReq accesses
system.l2.ReadExReq_miss_rate::total         0.961202                       # miss rate for ReadExReq accesses
system.l2.ReadCleanReq_miss_rate::cpu.inst     0.978808                       # miss rate for ReadCleanReq accesses
system.l2.ReadCleanReq_miss_rate::total      0.978808                       # miss rate for ReadCleanReq accesses
system.l2.ReadSharedReq_miss_rate::cpu.data     0.461616                       # miss rate for ReadSharedReq accesses
system.l2.ReadSharedReq_miss_rate::total     0.461616                       # miss rate for ReadSharedReq accesses
system.l2.demand_miss_rate::cpu.inst         0.978808                       # miss rate for demand accesses
system.l2.demand_miss_rate::cpu.data         0.536937                       # miss rate for demand accesses
system.l2.demand_miss_rate::total            0.543921                       # miss rate for demand accesses
system.l2.overall_miss_rate::cpu.inst        0.978808                       # miss rate for overall accesses
system.l2.overall_miss_rate::cpu.data        0.536937                       # miss rate for overall accesses
system.l2.overall_miss_rate::total           0.543921                       # miss rate for overall accesses
system.l2.ReadExReq_avg_miss_latency::cpu.data 59063.701747                       # average ReadExReq miss latency
system.l2.ReadExReq_avg_miss_latency::total 59063.701747                       # average ReadExReq miss latency
system.l2.ReadCleanReq_avg_miss_latency::cpu.inst 154443.166441                       # average ReadCleanReq miss latency
system.l2.ReadCleanReq_avg_miss_latency::total 154443.166441                       # average ReadCleanReq miss latency
system.l2.ReadSharedReq_avg_miss_latency::cpu.data 40800.325556                       # average ReadSharedReq miss latency
system.l2.ReadSharedReq_avg_miss_latency::total 40800.325556                       # average ReadSharedReq miss latency
system.l2.demand_avg_miss_latency::cpu.inst 154443.166441                       # average overall miss latency
system.l2.demand_avg_miss_latency::cpu.data 45729.548786                       # average overall miss latency
system.l2.demand_avg_miss_latency::total 48821.664999                       # average overall miss latency
system.l2.overall_avg_miss_latency::cpu.inst 154443.166441                       # average overall miss latency
system.l2.overall_avg_miss_latency::cpu.data 45729.548786                       # average overall miss latency
system.l2.overall_avg_miss_latency::total 48821.664999                       # average overall miss latency
system.l2.blocked_cycles::no_mshrs                  0                       # number of cycles access was blocked
system.l2.blocked_cycles::no_targets                0                       # number of cycles access was blocked
system.l2.blocked::no_mshrs                         0                       # number of cycles access was blocked
system.l2.blocked::no_targets                       0                       # number of cycles access was blocked
system.l2.avg_blocked_cycles::no_mshrs            nan                       # average number of cycles each access was blocked
system.l2.avg_blocked_cycles::no_targets          nan                       # average number of cycles each access was blocked
system.l2.writebacks::writebacks                22267                       # number of writebacks
system.l2.writebacks::total                     22267                       # number of writebacks
system.l2.CleanEvict_mshr_misses::writebacks           28                       # number of CleanEvict MSHR misses
system.l2.CleanEvict_mshr_misses::total            28                       # number of CleanEvict MSHR misses
system.l2.ReadExReq_mshr_misses::cpu.data         6813                       # number of ReadExReq MSHR misses
system.l2.ReadExReq_mshr_misses::total           6813                       # number of ReadExReq MSHR misses
system.l2.ReadCleanReq_mshr_misses::cpu.inst          739                       # number of ReadCleanReq MSHR misses
system.l2.ReadCleanReq_mshr_misses::total          739                       # number of ReadCleanReq MSHR misses
system.l2.ReadSharedReq_mshr_misses::cpu.data        18430                       # number of ReadSharedReq MSHR misses
system.l2.ReadSharedReq_mshr_misses::total        18430                       # number of ReadSharedReq MSHR misses
system.l2.demand_mshr_misses::cpu.inst            739                       # number of demand (read+write) MSHR misses
system.l2.demand_mshr_misses::cpu.data          25243                       # number of demand (read+write) MSHR misses
system.l2.demand_mshr_misses::total             25982                       # number of demand (read+write) MSHR misses
system.l2.overall_mshr_misses::cpu.inst           739                       # number of overall MSHR misses
system.l2.overall_mshr_misses::cpu.data         25243                       # number of overall MSHR misses
system.l2.overall_mshr_misses::total            25982                       # number of overall MSHR misses
system.l2.ReadExReq_mshr_miss_latency::cpu.data    334271000                       # number of ReadExReq MSHR miss cycles
system.l2.ReadExReq_mshr_miss_latency::total    334271000                       # number of ReadExReq MSHR miss cycles
system.l2.ReadCleanReq_mshr_miss_latency::cpu.inst    106743500                       # number of ReadCleanReq MSHR miss cycles
system.l2.ReadCleanReq_mshr_miss_latency::total    106743500                       # number of ReadCleanReq MSHR miss cycles
system.l2.ReadSharedReq_mshr_miss_latency::cpu.data    567650000                       # number of ReadSharedReq MSHR miss cycles
system.l2.ReadSharedReq_mshr_miss_latency::total    567650000                       # number of ReadSharedReq MSHR miss cycles
system.l2.demand_mshr_miss_latency::cpu.inst    106743500                       # number of demand (read+write) MSHR miss cycles
system.l2.demand_mshr_miss_latency::cpu.data    901921000                       # number of demand (read+write) MSHR miss cycles
system.l2.demand_mshr_miss_latency::total   1008664500                       # number of demand (read+write) MSHR miss cycles
system.l2.overall_mshr_miss_latency::cpu.inst    106743500                       # number of overall MSHR miss cycles
system.l2.overall_mshr_miss_latency::cpu.data    901921000                       # number of overall MSHR miss cycles
system.l2.overall_mshr_miss_latency::total   1008664500                       # number of overall MSHR miss cycles
system.l2.CleanEvict_mshr_miss_rate::writebacks          inf                       # mshr miss rate for CleanEvict accesses
system.l2.CleanEvict_mshr_miss_rate::total          inf                       # mshr miss rate for CleanEvict accesses
system.l2.ReadExReq_mshr_miss_rate::cpu.data     0.961202                       # mshr miss rate for ReadExReq accesses
system.l2.ReadExReq_mshr_miss_rate::total     0.961202                       # mshr miss rate for ReadExReq accesses
system.l2.ReadCleanReq_mshr_miss_rate::cpu.inst     0.978808                       # mshr miss rate for ReadCleanReq accesses
system.l2.ReadCleanReq_mshr_miss_rate::total     0.978808                       # mshr miss rate for ReadCleanReq accesses
system.l2.ReadSharedReq_mshr_miss_rate::cpu.data     0.461616                       # mshr miss rate for ReadSharedReq accesses
system.l2.ReadSharedReq_mshr_miss_rate::total     0.461616                       # mshr miss rate for ReadSharedReq accesses
system.l2.demand_mshr_miss_rate::cpu.inst     0.978808                       # mshr miss rate for demand accesses
system.l2.demand_mshr_miss_rate::cpu.data     0.536937                       # mshr miss rate for demand accesses
system.l2.demand_mshr_miss_rate::total       0.543921                       # mshr miss rate for demand accesses
system.l2.overall_mshr_miss_rate::cpu.inst     0.978808                       # mshr miss rate for overall accesses
system.l2.overall_mshr_miss_rate::cpu.data     0.536937                       # mshr miss rate for overall accesses
system.l2.overall_mshr_miss_rate::total      0.543921                       # mshr miss rate for overall accesses
system.l2.ReadExReq_avg_mshr_miss_latency::cpu.data 49063.701747                       # average ReadExReq mshr miss latency
system.l2.ReadExReq_avg_mshr_miss_latency::total 49063.701747                       # average ReadExReq mshr miss latency
system.l2.ReadCleanReq_avg_mshr_miss_latency::cpu.inst 144443.166441                       # average ReadCleanReq mshr miss latency
system.l2.ReadCleanReq_avg_mshr_miss_latency::total 144443.166441                       # average ReadCleanReq mshr miss latency
system.l2.ReadSharedReq_avg_mshr_miss_latency::cpu.data 30800.325556                       # average ReadSharedReq mshr miss latency
system.l2.ReadSharedReq_avg_mshr_miss_latency::total 30800.325556                       # average ReadSharedReq mshr miss latency
system.l2.demand_avg_mshr_miss_latency::cpu.inst 144443.166441                       # average overall mshr miss latency
system.l2.demand_avg_mshr_miss_latency::cpu.data 35729.548786                       # average overall mshr miss latency
system.l2.demand_avg_mshr_miss_latency::total 38821.664999                       # average overall mshr miss latency
system.l2.overall_avg_mshr_miss_latency::cpu.inst 144443.166441                       # average overall mshr miss latency
system.l2.overall_avg_mshr_miss_latency::cpu.data 35729.548786                       # average overall mshr miss latency
system.l2.overall_avg_mshr_miss_latency::total 38821.664999                       # average overall mshr miss latency
system.l2.replacements                          24118                       # number of replacements
system.l3.tags.pwrStateResidencyTicks::UNDEFINED  88112783000                       # Cumulative time (in ticks) in various power states
system.l3.tags.tagsinuse                  7066.400166                       # Cycle average of tags in use
system.l3.tags.total_refs                       49519                       # Total number of references to valid blocks.
system.l3.tags.sampled_refs                      8524                       # Sample count of references to valid blocks.
system.l3.tags.avg_refs                      5.809362                       # Average number of references to valid blocks.
system.l3.tags.warmup_cycle                    418000                       # Cycle when the warmup percentage was hit.
system.l3.tags.occ_blocks::writebacks        0.841128                       # Average occupied blocks per requestor
system.l3.tags.occ_blocks::cpu.inst        631.903744                       # Average occupied blocks per requestor
system.l3.tags.occ_blocks::cpu.data       6433.655293                       # Average occupied blocks per requestor
system.l3.tags.occ_percent::writebacks       0.000051                       # Average percentage of cache occupancy
system.l3.tags.occ_percent::cpu.inst         0.038568                       # Average percentage of cache occupancy
system.l3.tags.occ_percent::cpu.data         0.392679                       # Average percentage of cache occupancy
system.l3.tags.occ_percent::total            0.431299                       # Average percentage of cache occupancy
system.l3.tags.occ_task_id_blocks::1024          7483                       # Occupied blocks per task id
system.l3.tags.age_task_id_blocks_1024::0           34                       # Occupied blocks per task id
system.l3.tags.age_task_id_blocks_1024::1           39                       # Occupied blocks per task id
system.l3.tags.age_task_id_blocks_1024::3            2                       # Occupied blocks per task id
system.l3.tags.age_task_id_blocks_1024::4         7408                       # Occupied blocks per task id
system.l3.tags.occ_task_id_percent::1024     0.456726                       # Percentage of cache occupancy per task id
system.l3.tags.tag_accesses                     58047                       # Number of tag accesses
system.l3.tags.data_accesses                    58047                       # Number of data accesses
system.l3.pwrStateResidencyTicks::UNDEFINED  88112783000                       # Cumulative time (in ticks) in various power states
system.l3.WritebackDirty_hits::writebacks        22267                       # number of WritebackDirty hits
system.l3.WritebackDirty_hits::total            22267                       # number of WritebackDirty hits
system.l3.ReadExReq_hits::cpu.data                104                       # number of ReadExReq hits
system.l3.ReadExReq_hits::total                   104                       # number of ReadExReq hits
system.l3.ReadSharedReq_hits::cpu.inst              5                       # number of ReadSharedReq hits
system.l3.ReadSharedReq_hits::cpu.data          17351                       # number of ReadSharedReq hits
system.l3.ReadSharedReq_hits::total             17356                       # number of ReadSharedReq hits
system.l3.demand_hits::cpu.inst                     5                       # number of demand (read+write) hits
system.l3.demand_hits::cpu.data                 17455                       # number of demand (read+write) hits
system.l3.demand_hits::total                    17460                       # number of demand (read+write) hits
system.l3.overall_hits::cpu.inst                    5                       # number of overall hits
system.l3.overall_hits::cpu.data                17455                       # number of overall hits
system.l3.overall_hits::total                   17460                       # number of overall hits
system.l3.ReadExReq_misses::cpu.data             6709                       # number of ReadExReq misses
system.l3.ReadExReq_misses::total                6709                       # number of ReadExReq misses
system.l3.ReadSharedReq_misses::cpu.inst          734                       # number of ReadSharedReq misses
system.l3.ReadSharedReq_misses::cpu.data         1079                       # number of ReadSharedReq misses
system.l3.ReadSharedReq_misses::total            1813                       # number of ReadSharedReq misses
system.l3.demand_misses::cpu.inst                 734                       # number of demand (read+write) misses
system.l3.demand_misses::cpu.data                7788                       # number of demand (read+write) misses
system.l3.demand_misses::total                   8522                       # number of demand (read+write) misses
system.l3.overall_misses::cpu.inst                734                       # number of overall misses
system.l3.overall_misses::cpu.data               7788                       # number of overall misses
system.l3.overall_misses::total                  8522                       # number of overall misses
system.l3.ReadExReq_miss_latency::cpu.data    247808500                       # number of ReadExReq miss cycles
system.l3.ReadExReq_miss_latency::total     247808500                       # number of ReadExReq miss cycles
system.l3.ReadSharedReq_miss_latency::cpu.inst     97443500                       # number of ReadSharedReq miss cycles
system.l3.ReadSharedReq_miss_latency::cpu.data    120387500                       # number of ReadSharedReq miss cycles
system.l3.ReadSharedReq_miss_latency::total    217831000                       # number of ReadSharedReq miss cycles
system.l3.demand_miss_latency::cpu.inst      97443500                       # number of demand (read+write) miss cycles
system.l3.demand_miss_latency::cpu.data     368196000                       # number of demand (read+write) miss cycles
system.l3.demand_miss_latency::total        465639500                       # number of demand (read+write) miss cycles
system.l3.overall_miss_latency::cpu.inst     97443500                       # number of overall miss cycles
system.l3.overall_miss_latency::cpu.data    368196000                       # number of overall miss cycles
system.l3.overall_miss_latency::total       465639500                       # number of overall miss cycles
system.l3.WritebackDirty_accesses::writebacks        22267                       # number of WritebackDirty accesses(hits+misses)
system.l3.WritebackDirty_accesses::total        22267                       # number of WritebackDirty accesses(hits+misses)
system.l3.ReadExReq_accesses::cpu.data           6813                       # number of ReadExReq accesses(hits+misses)
system.l3.ReadExReq_accesses::total              6813                       # number of ReadExReq accesses(hits+misses)
system.l3.ReadSharedReq_accesses::cpu.inst          739                       # number of ReadSharedReq accesses(hits+misses)
system.l3.ReadSharedReq_accesses::cpu.data        18430                       # number of ReadSharedReq accesses(hits+misses)
system.l3.ReadSharedReq_accesses::total         19169                       # number of ReadSharedReq accesses(hits+misses)
system.l3.demand_accesses::cpu.inst               739                       # number of demand (read+write) accesses
system.l3.demand_accesses::cpu.data             25243                       # number of demand (read+write) accesses
system.l3.demand_accesses::total                25982                       # number of demand (read+write) accesses
system.l3.overall_accesses::cpu.inst              739                       # number of overall (read+write) accesses
system.l3.overall_accesses::cpu.data            25243                       # number of overall (read+write) accesses
system.l3.overall_accesses::total               25982                       # number of overall (read+write) accesses
system.l3.ReadExReq_miss_rate::cpu.data      0.984735                       # miss rate for ReadExReq accesses
system.l3.ReadExReq_miss_rate::total         0.984735                       # miss rate for ReadExReq accesses
system.l3.ReadSharedReq_miss_rate::cpu.inst     0.993234                       # miss rate for ReadSharedReq accesses
system.l3.ReadSharedReq_miss_rate::cpu.data     0.058546                       # miss rate for ReadSharedReq accesses
system.l3.ReadSharedReq_miss_rate::total     0.094580                       # miss rate for ReadSharedReq accesses
system.l3.demand_miss_rate::cpu.inst         0.993234                       # miss rate for demand accesses
system.l3.demand_miss_rate::cpu.data         0.308521                       # miss rate for demand accesses
system.l3.demand_miss_rate::total            0.327996                       # miss rate for demand accesses
system.l3.overall_miss_rate::cpu.inst        0.993234                       # miss rate for overall accesses
system.l3.overall_miss_rate::cpu.data        0.308521                       # miss rate for overall accesses
system.l3.overall_miss_rate::total           0.327996                       # miss rate for overall accesses
system.l3.ReadExReq_avg_miss_latency::cpu.data 36936.726785                       # average ReadExReq miss latency
system.l3.ReadExReq_avg_miss_latency::total 36936.726785                       # average ReadExReq miss latency
system.l3.ReadSharedReq_avg_miss_latency::cpu.inst 132756.811989                       # average ReadSharedReq miss latency
system.l3.ReadSharedReq_avg_miss_latency::cpu.data 111573.215941                       # average ReadSharedReq miss latency
system.l3.ReadSharedReq_avg_miss_latency::total 120149.476007                       # average ReadSharedReq miss latency
system.l3.demand_avg_miss_latency::cpu.inst 132756.811989                       # average overall miss latency
system.l3.demand_avg_miss_latency::cpu.data 47277.349769                       # average overall miss latency
system.l3.demand_avg_miss_latency::total 54639.697254                       # average overall miss latency
system.l3.overall_avg_miss_latency::cpu.inst 132756.811989                       # average overall miss latency
system.l3.overall_avg_miss_latency::cpu.data 47277.349769                       # average overall miss latency
system.l3.overall_avg_miss_latency::total 54639.697254                       # average overall miss latency
system.l3.blocked_cycles::no_mshrs                  0                       # number of cycles access was blocked
system.l3.blocked_cycles::no_targets                0                       # number of cycles access was blocked
system.l3.blocked::no_mshrs                         0                       # number of cycles access was blocked
system.l3.blocked::no_targets                       0                       # number of cycles access was blocked
system.l3.avg_blocked_cycles::no_mshrs            nan                       # average number of cycles each access was blocked
system.l3.avg_blocked_cycles::no_targets          nan                       # average number of cycles each access was blocked
system.l3.writebacks::writebacks                  100                       # number of writebacks
system.l3.writebacks::total                       100                       # number of writebacks
system.l3.CleanEvict_mshr_misses::writebacks            4                       # number of CleanEvict MSHR misses
system.l3.CleanEvict_mshr_misses::total             4                       # number of CleanEvict MSHR misses
system.l3.ReadExReq_mshr_misses::cpu.data         6709                       # number of ReadExReq MSHR misses
system.l3.ReadExReq_mshr_misses::total           6709                       # number of ReadExReq MSHR misses
system.l3.ReadSharedReq_mshr_misses::cpu.inst          734                       # number of ReadSharedReq MSHR misses
system.l3.ReadSharedReq_mshr_misses::cpu.data         1079                       # number of ReadSharedReq MSHR misses
system.l3.ReadSharedReq_mshr_misses::total         1813                       # number of ReadSharedReq MSHR misses
system.l3.demand_mshr_misses::cpu.inst            734                       # number of demand (read+write) MSHR misses
system.l3.demand_mshr_misses::cpu.data           7788                       # number of demand (read+write) MSHR misses
system.l3.demand_mshr_misses::total              8522                       # number of demand (read+write) MSHR misses
system.l3.overall_mshr_misses::cpu.inst           734                       # number of overall MSHR misses
system.l3.overall_mshr_misses::cpu.data          7788                       # number of overall MSHR misses
system.l3.overall_mshr_misses::total             8522                       # number of overall MSHR misses
system.l3.ReadExReq_mshr_miss_latency::cpu.data    180718500                       # number of ReadExReq MSHR miss cycles
system.l3.ReadExReq_mshr_miss_latency::total    180718500                       # number of ReadExReq MSHR miss cycles
system.l3.ReadSharedReq_mshr_miss_latency::cpu.inst     90103500                       # number of ReadSharedReq MSHR miss cycles
system.l3.ReadSharedReq_mshr_miss_latency::cpu.data    109597500                       # number of ReadSharedReq MSHR miss cycles
system.l3.ReadSharedReq_mshr_miss_latency::total    199701000                       # number of ReadSharedReq MSHR miss cycles
system.l3.demand_mshr_miss_latency::cpu.inst     90103500                       # number of demand (read+write) MSHR miss cycles
system.l3.demand_mshr_miss_latency::cpu.data    290316000                       # number of demand (read+write) MSHR miss cycles
system.l3.demand_mshr_miss_latency::total    380419500                       # number of demand (read+write) MSHR miss cycles
system.l3.overall_mshr_miss_latency::cpu.inst     90103500                       # number of overall MSHR miss cycles
system.l3.overall_mshr_miss_latency::cpu.data    290316000                       # number of overall MSHR miss cycles
system.l3.overall_mshr_miss_latency::total    380419500                       # number of overall MSHR miss cycles
system.l3.CleanEvict_mshr_miss_rate::writebacks          inf                       # mshr miss rate for CleanEvict accesses
system.l3.CleanEvict_mshr_miss_rate::total          inf                       # mshr miss rate for CleanEvict accesses
system.l3.ReadExReq_mshr_miss_rate::cpu.data     0.984735                       # mshr miss rate for ReadExReq accesses
system.l3.ReadExReq_mshr_miss_rate::total     0.984735                       # mshr miss rate for ReadExReq accesses
system.l3.ReadSharedReq_mshr_miss_rate::cpu.inst     0.993234                       # mshr miss rate for ReadSharedReq accesses
system.l3.ReadSharedReq_mshr_miss_rate::cpu.data     0.058546                       # mshr miss rate for ReadSharedReq accesses
system.l3.ReadSharedReq_mshr_miss_rate::total     0.094580                       # mshr miss rate for ReadSharedReq accesses
system.l3.demand_mshr_miss_rate::cpu.inst     0.993234                       # mshr miss rate for demand accesses
system.l3.demand_mshr_miss_rate::cpu.data     0.308521                       # mshr miss rate for demand accesses
system.l3.demand_mshr_miss_rate::total       0.327996                       # mshr miss rate for demand accesses
system.l3.overall_mshr_miss_rate::cpu.inst     0.993234                       # mshr miss rate for overall accesses
system.l3.overall_mshr_miss_rate::cpu.data     0.308521                       # mshr miss rate for overall accesses
system.l3.overall_mshr_miss_rate::total      0.327996                       # mshr miss rate for overall accesses
system.l3.ReadExReq_avg_mshr_miss_latency::cpu.data 26936.726785                       # average ReadExReq mshr miss latency
system.l3.ReadExReq_avg_mshr_miss_latency::total 26936.726785                       # average ReadExReq mshr miss latency
system.l3.ReadSharedReq_avg_mshr_miss_latency::cpu.inst 122756.811989                       # average ReadSharedReq mshr miss latency
system.l3.ReadSharedReq_avg_mshr_miss_latency::cpu.data 101573.215941                       # average ReadSharedReq mshr miss latency
system.l3.ReadSharedReq_avg_mshr_miss_latency::total 110149.476007                       # average ReadSharedReq mshr miss latency
system.l3.demand_avg_mshr_miss_latency::cpu.inst 122756.811989                       # average overall mshr miss latency
system.l3.demand_avg_mshr_miss_latency::cpu.data 37277.349769                       # average overall mshr miss latency
system.l3.demand_avg_mshr_miss_latency::total 44639.697254                       # average overall mshr miss latency
system.l3.overall_avg_mshr_miss_latency::cpu.inst 122756.811989                       # average overall mshr miss latency
system.l3.overall_avg_mshr_miss_latency::cpu.data 37277.349769                       # average overall mshr miss latency
system.l3.overall_avg_mshr_miss_latency::total 44639.697254                       # average overall mshr miss latency
system.l3.replacements                           1041                       # number of replacements
system.membus.snoop_filter.tot_requests          9509                       # Total number of requests made to the snoop filter.
system.membus.snoop_filter.hit_single_requests          987                       # Number of requests hitting in the snoop filter with a single holder of the requested data.
system.membus.snoop_filter.hit_multi_requests            0                       # Number of requests hitting in the snoop filter with multiple (>1) holders of the requested data.
system.membus.snoop_filter.tot_snoops               0                       # Total number of snoops made to the snoop filter.
system.membus.snoop_filter.hit_single_snoops            0                       # Number of snoops hitting in the snoop filter with a single holder of the requested data.
system.membus.snoop_filter.hit_multi_snoops            0                       # Number of snoops hitting in the snoop filter with multiple (>1) holders of the requested data.
system.membus.pwrStateResidencyTicks::UNDEFINED  88112783000                       # Cumulative time (in ticks) in various power states
system.membus.trans_dist::ReadResp               1813                       # Transaction distribution
system.membus.trans_dist::WritebackDirty          100                       # Transaction distribution
system.membus.trans_dist::CleanEvict              887                       # Transaction distribution
system.membus.trans_dist::ReadExReq              6709                       # Transaction distribution
system.membus.trans_dist::ReadExResp             6709                       # Transaction distribution
system.membus.trans_dist::ReadSharedReq          1813                       # Transaction distribution
system.membus.pkt_count_system.l3.mem_side::system.mem_ctrls.port        18031                       # Packet count per connected master and slave (bytes)
system.membus.pkt_count_system.l3.mem_side::total        18031                       # Packet count per connected master and slave (bytes)
system.membus.pkt_count::total                  18031                       # Packet count per connected master and slave (bytes)
system.membus.pkt_size_system.l3.mem_side::system.mem_ctrls.port       551808                       # Cumulative packet size per connected master and slave (bytes)
system.membus.pkt_size_system.l3.mem_side::total       551808                       # Cumulative packet size per connected master and slave (bytes)
system.membus.pkt_size::total                  551808                       # Cumulative packet size per connected master and slave (bytes)
system.membus.snoops                                0                       # Total snoops (count)
system.membus.snoopTraffic                          0                       # Total snoop traffic (bytes)
system.membus.snoop_fanout::samples              8522                       # Request fanout histogram
system.membus.snoop_fanout::mean                    0                       # Request fanout histogram
system.membus.snoop_fanout::stdev                   0                       # Request fanout histogram
system.membus.snoop_fanout::underflows              0      0.00%      0.00% # Request fanout histogram
system.membus.snoop_fanout::0                    8522    100.00%    100.00% # Request fanout histogram
system.membus.snoop_fanout::1                       0      0.00%    100.00% # Request fanout histogram
system.membus.snoop_fanout::overflows               0      0.00%    100.00% # Request fanout histogram
system.membus.snoop_fanout::min_value               0                       # Request fanout histogram
system.membus.snoop_fanout::max_value               0                       # Request fanout histogram
system.membus.snoop_fanout::total                8522                       # Request fanout histogram
system.membus.reqLayer2.occupancy            14147000                       # Layer occupancy (ticks)
system.membus.reqLayer2.utilization               0.0                       # Layer utilization (%)
system.membus.respLayer1.occupancy           46844500                       # Layer occupancy (ticks)
system.membus.respLayer1.utilization              0.1                       # Layer utilization (%)
system.tol2bus.snoop_filter.tot_requests       110614                       # Total number of requests made to the snoop filter.
system.tol2bus.snoop_filter.hit_single_requests        62846                       # Number of requests hitting in the snoop filter with a single holder of the requested data.
system.tol2bus.snoop_filter.hit_multi_requests            1                       # Number of requests hitting in the snoop filter with multiple (>1) holders of the requested data.
system.tol2bus.snoop_filter.tot_snoops            660                       # Total number of snoops made to the snoop filter.
system.tol2bus.snoop_filter.hit_single_snoops          660                       # Number of snoops hitting in the snoop filter with a single holder of the requested data.
system.tol2bus.snoop_filter.hit_multi_snoops            0                       # Number of snoops hitting in the snoop filter with multiple (>1) holders of the requested data.
system.tol2bus.pwrStateResidencyTicks::UNDEFINED  88112783000                       # Cumulative time (in ticks) in various power states
system.tol2bus.trans_dist::ReadResp             40680                       # Transaction distribution
system.tol2bus.trans_dist::WritebackDirty        66470                       # Transaction distribution
system.tol2bus.trans_dist::WritebackClean          305                       # Transaction distribution
system.tol2bus.trans_dist::CleanEvict            5190                       # Transaction distribution
system.tol2bus.trans_dist::UpgradeReq           16040                       # Transaction distribution
system.tol2bus.trans_dist::UpgradeResp          16040                       # Transaction distribution
system.tol2bus.trans_dist::ReadExReq             7088                       # Transaction distribution
system.tol2bus.trans_dist::ReadExResp            7088                       # Transaction distribution
system.tol2bus.trans_dist::ReadCleanReq           755                       # Transaction distribution
system.tol2bus.trans_dist::ReadSharedReq        39925                       # Transaction distribution
system.tol2bus.pkt_count_system.cpu.icache.mem_side::system.l2.cpu_side         1815                       # Packet count per connected master and slave (bytes)
system.tol2bus.pkt_count_system.cpu.dcache.mem_side::system.l2.cpu_side       172607                       # Packet count per connected master and slave (bytes)
system.tol2bus.pkt_count::total                174422                       # Packet count per connected master and slave (bytes)
system.tol2bus.pkt_size_system.cpu.icache.mem_side::system.l2.cpu_side        67840                       # Cumulative packet size per connected master and slave (bytes)
system.tol2bus.pkt_size_system.cpu.dcache.mem_side::system.l2.cpu_side      5831424                       # Cumulative packet size per connected master and slave (bytes)
system.tol2bus.pkt_size::total                5899264                       # Cumulative packet size per connected master and slave (bytes)
system.tol2bus.snoops                           25159                       # Total snoops (count)
system.tol2bus.snoopTraffic                   1431488                       # Total snoop traffic (bytes)
system.tol2bus.snoop_fanout::samples            88967                       # Request fanout histogram
system.tol2bus.snoop_fanout::mean            0.007430                       # Request fanout histogram
system.tol2bus.snoop_fanout::stdev           0.085876                       # Request fanout histogram
system.tol2bus.snoop_fanout::underflows             0      0.00%      0.00% # Request fanout histogram
system.tol2bus.snoop_fanout::0                  88306     99.26%     99.26% # Request fanout histogram
system.tol2bus.snoop_fanout::1                    661      0.74%    100.00% # Request fanout histogram
system.tol2bus.snoop_fanout::2                      0      0.00%    100.00% # Request fanout histogram
system.tol2bus.snoop_fanout::3                      0      0.00%    100.00% # Request fanout histogram
system.tol2bus.snoop_fanout::4                      0      0.00%    100.00% # Request fanout histogram
system.tol2bus.snoop_fanout::overflows              0      0.00%    100.00% # Request fanout histogram
system.tol2bus.snoop_fanout::min_value              0                       # Request fanout histogram
system.tol2bus.snoop_fanout::max_value              1                       # Request fanout histogram
system.tol2bus.snoop_fanout::total              88967                       # Request fanout histogram
system.tol2bus.reqLayer0.occupancy           99715000                       # Layer occupancy (ticks)
system.tol2bus.reqLayer0.utilization              0.1                       # Layer utilization (%)
system.tol2bus.respLayer0.occupancy           1132500                       # Layer occupancy (ticks)
system.tol2bus.respLayer0.utilization             0.0                       # Layer utilization (%)
system.tol2bus.respLayer1.occupancy          78539500                       # Layer occupancy (ticks)
system.tol2bus.respLayer1.utilization             0.1                       # Layer utilization (%)
system.tol3bus.pwrStateResidencyTicks::UNDEFINED  88112783000                       # Cumulative time (in ticks) in various power states
system.tol3bus.trans_dist::ReadResp             19169                       # Transaction distribution
system.tol3bus.trans_dist::WritebackDirty        22367                       # Transaction distribution
system.tol3bus.trans_dist::CleanEvict            2215                       # Transaction distribution
system.tol3bus.trans_dist::ReadExReq             6813                       # Transaction distribution
system.tol3bus.trans_dist::ReadExResp            6813                       # Transaction distribution
system.tol3bus.trans_dist::ReadSharedReq        19169                       # Transaction distribution
system.tol3bus.pkt_count_system.l2.mem_side::system.l3.cpu_side        75505                       # Packet count per connected master and slave (bytes)
system.tol3bus.pkt_size_system.l2.mem_side::system.l3.cpu_side      3087936                       # Cumulative packet size per connected master and slave (bytes)
system.tol3bus.snoops                            1041                       # Total snoops (count)
system.tol3bus.snoopTraffic                      6400                       # Total snoop traffic (bytes)
system.tol3bus.snoop_fanout::samples            50564                       # Request fanout histogram
system.tol3bus.snoop_fanout::mean            0.020588                       # Request fanout histogram
system.tol3bus.snoop_fanout::stdev           0.142001                       # Request fanout histogram
system.tol3bus.snoop_fanout::underflows             0      0.00%      0.00% # Request fanout histogram
system.tol3bus.snoop_fanout::0                  49523     97.94%     97.94% # Request fanout histogram
system.tol3bus.snoop_fanout::1                   1041      2.06%    100.00% # Request fanout histogram
system.tol3bus.snoop_fanout::overflows              0      0.00%    100.00% # Request fanout histogram
system.tol3bus.snoop_fanout::min_value              0                       # Request fanout histogram
system.tol3bus.snoop_fanout::max_value              1                       # Request fanout histogram
system.tol3bus.snoop_fanout::total              50564                       # Request fanout histogram
system.tol3bus.reqLayer0.occupancy           35895000                       # Layer occupancy (ticks)
system.tol3bus.reqLayer0.utilization              0.0                       # Layer utilization (%)
system.tol3bus.respLayer0.occupancy          25982000                       # Layer occupancy (ticks)
system.tol3bus.respLayer0.utilization             0.0                       # Layer utilization (%)

---------- End Simulation Statistics   ----------
