
---------- Begin Simulation Statistics ----------
sim_seconds                                  0.094882                       # Number of seconds simulated
sim_ticks                                 94882140500                       # Number of ticks simulated
final_tick                                94882140500                       # Number of ticks from beginning of simulation (restored from checkpoints and never reset)
sim_freq                                 1000000000000                       # Frequency of simulated ticks
host_inst_rate                                 799273                       # Simulator instruction rate (inst/s)
host_op_rate                                  1319827                       # Simulator op (including micro ops) rate (op/s)
host_tick_rate                             1697801260                       # Simulator tick rate (ticks/s)
host_mem_usage                                 669912                       # Number of bytes of host memory used
host_seconds                                    55.89                       # Real time elapsed on the host
sim_insts                                    44667607                       # Number of instructions simulated
sim_ops                                      73758908                       # Number of ops (including micro ops) simulated
system.voltage_domain.voltage                       1                       # Voltage in Volts
system.clk_domain.clock                          1000                       # Clock period in ticks
system.mem_ctrls.pwrStateResidencyTicks::UNDEFINED  94882140500                       # Cumulative time (in ticks) in various power states
system.mem_ctrls.bytes_read::cpu.inst           47296                       # Number of bytes read from this memory
system.mem_ctrls.bytes_read::cpu.data         1476096                       # Number of bytes read from this memory
system.mem_ctrls.bytes_read::total            1523392                       # Number of bytes read from this memory
system.mem_ctrls.bytes_inst_read::cpu.inst        47296                       # Number of instructions bytes read from this memory
system.mem_ctrls.bytes_inst_read::total         47296                       # Number of instructions bytes read from this memory
system.mem_ctrls.bytes_written::writebacks      1236800                       # Number of bytes written to this memory
system.mem_ctrls.bytes_written::total         1236800                       # Number of bytes written to this memory
system.mem_ctrls.num_reads::cpu.inst              739                       # Number of read requests responded to by this memory
system.mem_ctrls.num_reads::cpu.data            23064                       # Number of read requests responded to by this memory
system.mem_ctrls.num_reads::total               23803                       # Number of read requests responded to by this memory
system.mem_ctrls.num_writes::writebacks         19325                       # Number of write requests responded to by this memory
system.mem_ctrls.num_writes::total              19325                       # Number of write requests responded to by this memory
system.mem_ctrls.bw_read::cpu.inst             498471                       # Total read bandwidth from this memory (bytes/s)
system.mem_ctrls.bw_read::cpu.data           15557153                       # Total read bandwidth from this memory (bytes/s)
system.mem_ctrls.bw_read::total              16055624                       # Total read bandwidth from this memory (bytes/s)
system.mem_ctrls.bw_inst_read::cpu.inst        498471                       # Instruction read bandwidth from this memory (bytes/s)
system.mem_ctrls.bw_inst_read::total           498471                       # Instruction read bandwidth from this memory (bytes/s)
system.mem_ctrls.bw_write::writebacks        13035119                       # Write bandwidth from this memory (bytes/s)
system.mem_ctrls.bw_write::total             13035119                       # Write bandwidth from this memory (bytes/s)
system.mem_ctrls.bw_total::writebacks        13035119                       # Total bandwidth to/from this memory (bytes/s)
system.mem_ctrls.bw_total::cpu.inst            498471                       # Total bandwidth to/from this memory (bytes/s)
system.mem_ctrls.bw_total::cpu.data          15557153                       # Total bandwidth to/from this memory (bytes/s)
system.mem_ctrls.bw_total::total             29090743                       # Total bandwidth to/from this memory (bytes/s)
system.pwrStateResidencyTicks::UNDEFINED  94882140500                       # Cumulative time (in ticks) in various power states
system.cpu_voltage_domain.voltage                   1                       # Voltage in Volts
system.cpu_clk_domain.clock                       500                       # Clock period in ticks
system.cpu.dtb.walker.pwrStateResidencyTicks::UNDEFINED  94882140500                       # Cumulative time (in ticks) in various power states
system.cpu.dtb.rdAccesses                    20998408                       # TLB accesses on read requests
system.cpu.dtb.wrAccesses                     5824776                       # TLB accesses on write requests
system.cpu.dtb.rdMisses                           231                       # TLB misses on read requests
system.cpu.dtb.wrMisses                           111                       # TLB misses on write requests
system.cpu.apic_clk_domain.clock                 8000                       # Clock period in ticks
system.cpu.interrupts.pwrStateResidencyTicks::UNDEFINED  94882140500                       # Cumulative time (in ticks) in various power states
system.cpu.itb.walker.pwrStateResidencyTicks::UNDEFINED  94882140500                       # Cumulative time (in ticks) in various power states
system.cpu.itb.rdAccesses                           0                       # TLB accesses on read requests
system.cpu.itb.wrAccesses                    59528532                       # TLB accesses on write requests
system.cpu.itb.rdMisses                             0                       # TLB misses on read requests
system.cpu.itb.wrMisses                            78                       # TLB misses on write requests
system.cpu.workload.numSyscalls                    25                       # Number of system calls
system.cpu.pwrStateResidencyTicks::ON     94882140500                       # Cumulative time (in ticks) in various power states
system.cpu.numCycles                        189764281                       # number of cpu cycles simulated
system.cpu.numWorkItemsStarted                      0                       # number of work items this cpu started
system.cpu.numWorkItemsCompleted                    0                       # number of work items this cpu completed
system.cpu.committedInsts                    44667607                       # Number of instructions committed
system.cpu.committedOps                      73758908                       # Number of ops (including micro ops) committed
system.cpu.num_int_alu_accesses              73234925                       # Number of integer alu accesses
system.cpu.num_fp_alu_accesses                   4324                       # Number of float alu accesses
system.cpu.num_vec_alu_accesses                     0                       # Number of vector alu accesses
system.cpu.num_func_calls                      945812                       # number of times a function call or return occured
system.cpu.num_conditional_control_insts      4246113                       # number of instructions that are conditional controls
system.cpu.num_int_insts                     73234925                       # number of integer instructions
system.cpu.num_fp_insts                          4324                       # number of float instructions
system.cpu.num_vec_insts                            0                       # number of vector instructions
system.cpu.num_int_register_reads           164564264                       # number of times the integer registers were read
system.cpu.num_int_register_writes           63904152                       # number of times the integer registers were written
system.cpu.num_fp_register_reads                 6422                       # number of times the floating registers were read
system.cpu.num_fp_register_writes                3209                       # number of times the floating registers were written
system.cpu.num_vec_register_reads                   0                       # number of times the vector registers were read
system.cpu.num_vec_register_writes                  0                       # number of times the vector registers were written
system.cpu.num_cc_register_reads             27729338                       # number of times the CC registers were read
system.cpu.num_cc_register_writes            24993571                       # number of times the CC registers were written
system.cpu.num_mem_refs                      26823176                       # number of memory refs
system.cpu.num_load_insts                    20998400                       # Number of load instructions
system.cpu.num_store_insts                    5824776                       # Number of store instructions
system.cpu.num_idle_cycles                          0                       # Number of idle cycles
system.cpu.num_busy_cycles                  189764281                       # Number of busy cycles
system.cpu.not_idle_fraction                        1                       # Percentage of non-idle cycles
system.cpu.idle_fraction                            0                       # Percentage of idle cycles
system.cpu.Branches                           5689970                       # Number of branches fetched
system.cpu.op_class::No_OpClass                177072      0.24%      0.24% # Class of executed instruction
system.cpu.op_class::IntAlu                  45751849     62.03%     62.27% # Class of executed instruction
system.cpu.op_class::IntMult                       15      0.00%     62.27% # Class of executed instruction
system.cpu.op_class::IntDiv                   1004199      1.36%     63.63% # Class of executed instruction
system.cpu.op_class::FloatAdd                     132      0.00%     63.63% # Class of executed instruction
system.cpu.op_class::FloatCmp                       0      0.00%     63.63% # Class of executed instruction
system.cpu.op_class::FloatCvt                       0      0.00%     63.63% # Class of executed instruction
system.cpu.op_class::FloatMult                      0      0.00%     63.63% # Class of executed instruction
system.cpu.op_class::FloatMultAcc                   0      0.00%     63.63% # Class of executed instruction
system.cpu.op_class::FloatDiv                       0      0.00%     63.63% # Class of executed instruction
system.cpu.op_class::FloatMisc                      0      0.00%     63.63% # Class of executed instruction
system.cpu.op_class::FloatSqrt                      0      0.00%     63.63% # Class of executed instruction
system.cpu.op_class::SimdAdd                      348      0.00%     63.63% # Class of executed instruction
system.cpu.op_class::SimdAddAcc                     0      0.00%     63.63% # Class of executed instruction
system.cpu.op_class::SimdAlu                      682      0.00%     63.63% # Class of executed instruction
system.cpu.op_class::SimdCmp                        0      0.00%     63.63% # Class of executed instruction
system.cpu.op_class::SimdCvt                      776      0.00%     63.63% # Class of executed instruction
system.cpu.op_class::SimdMisc                     530      0.00%     63.63% # Class of executed instruction
system.cpu.op_class::SimdMult                       0      0.00%     63.63% # Class of executed instruction
system.cpu.op_class::SimdMultAcc                    0      0.00%     63.63% # Class of executed instruction
system.cpu.op_class::SimdShift                    129      0.00%     63.63% # Class of executed instruction
system.cpu.op_class::SimdShiftAcc                   0      0.00%     63.63% # Class of executed instruction
system.cpu.op_class::SimdSqrt                       0      0.00%     63.63% # Class of executed instruction
system.cpu.op_class::SimdFloatAdd                   0      0.00%     63.63% # Class of executed instruction
system.cpu.op_class::SimdFloatAlu                   0      0.00%     63.63% # Class of executed instruction
system.cpu.op_class::SimdFloatCmp                   0      0.00%     63.63% # Class of executed instruction
system.cpu.op_class::SimdFloatCvt                   0      0.00%     63.63% # Class of executed instruction
system.cpu.op_class::SimdFloatDiv                   0      0.00%     63.63% # Class of executed instruction
system.cpu.op_class::SimdFloatMisc                  0      0.00%     63.63% # Class of executed instruction
system.cpu.op_class::SimdFloatMult                  0      0.00%     63.63% # Class of executed instruction
system.cpu.op_class::SimdFloatMultAcc               0      0.00%     63.63% # Class of executed instruction
system.cpu.op_class::SimdFloatSqrt                  0      0.00%     63.63% # Class of executed instruction
system.cpu.op_class::MemRead                 20997422     28.47%     92.10% # Class of executed instruction
system.cpu.op_class::MemWrite                 5824086      7.90%    100.00% # Class of executed instruction
system.cpu.op_class::FloatMemRead                 978      0.00%    100.00% # Class of executed instruction
system.cpu.op_class::FloatMemWrite                690      0.00%    100.00% # Class of executed instruction
system.cpu.op_class::IprAccess                      0      0.00%    100.00% # Class of executed instruction
system.cpu.op_class::InstPrefetch                   0      0.00%    100.00% # Class of executed instruction
system.cpu.op_class::total                   73758908                       # Class of executed instruction
system.cpu.dcache.tags.pwrStateResidencyTicks::UNDEFINED  94882140500                       # Cumulative time (in ticks) in various power states
system.cpu.dcache.tags.tagsinuse           511.452021                       # Cycle average of tags in use
system.cpu.dcache.tags.total_refs            26823184                       # Total number of references to valid blocks.
system.cpu.dcache.tags.sampled_refs             47013                       # Sample count of references to valid blocks.
system.cpu.dcache.tags.avg_refs            570.548231                       # Average number of references to valid blocks.
system.cpu.dcache.tags.warmup_cycle            761500                       # Cycle when the warmup percentage was hit.
system.cpu.dcache.tags.occ_blocks::cpu.data   511.452021                       # Average occupied blocks per requestor
system.cpu.dcache.tags.occ_percent::cpu.data     0.998930                       # Average percentage of cache occupancy
system.cpu.dcache.tags.occ_percent::total     0.998930                       # Average percentage of cache occupancy
system.cpu.dcache.tags.occ_task_id_blocks::1024          512                       # Occupied blocks per task id
system.cpu.dcache.tags.age_task_id_blocks_1024::0            8                       # Occupied blocks per task id
system.cpu.dcache.tags.age_task_id_blocks_1024::1           48                       # Occupied blocks per task id
system.cpu.dcache.tags.age_task_id_blocks_1024::2           33                       # Occupied blocks per task id
system.cpu.dcache.tags.age_task_id_blocks_1024::3          421                       # Occupied blocks per task id
system.cpu.dcache.tags.age_task_id_blocks_1024::4            2                       # Occupied blocks per task id
system.cpu.dcache.tags.occ_task_id_percent::1024            1                       # Percentage of cache occupancy per task id
system.cpu.dcache.tags.tag_accesses          53693381                       # Number of tag accesses
system.cpu.dcache.tags.data_accesses         53693381                       # Number of data accesses
system.cpu.dcache.pwrStateResidencyTicks::UNDEFINED  94882140500                       # Cumulative time (in ticks) in various power states
system.cpu.dcache.ReadReq_hits::cpu.data     20958483                       # number of ReadReq hits
system.cpu.dcache.ReadReq_hits::total        20958483                       # number of ReadReq hits
system.cpu.dcache.WriteReq_hits::cpu.data      5815777                       # number of WriteReq hits
system.cpu.dcache.WriteReq_hits::total        5815777                       # number of WriteReq hits
system.cpu.dcache.demand_hits::cpu.data      26774260                       # number of demand (read+write) hits
system.cpu.dcache.demand_hits::total         26774260                       # number of demand (read+write) hits
system.cpu.dcache.overall_hits::cpu.data     26774260                       # number of overall hits
system.cpu.dcache.overall_hits::total        26774260                       # number of overall hits
system.cpu.dcache.ReadReq_misses::cpu.data        39925                       # number of ReadReq misses
system.cpu.dcache.ReadReq_misses::total         39925                       # number of ReadReq misses
system.cpu.dcache.WriteReq_misses::cpu.data         8999                       # number of WriteReq misses
system.cpu.dcache.WriteReq_misses::total         8999                       # number of WriteReq misses
system.cpu.dcache.demand_misses::cpu.data        48924                       # number of demand (read+write) misses
system.cpu.dcache.demand_misses::total          48924                       # number of demand (read+write) misses
system.cpu.dcache.overall_misses::cpu.data        48924                       # number of overall misses
system.cpu.dcache.overall_misses::total         48924                       # number of overall misses
system.cpu.dcache.ReadReq_miss_latency::cpu.data   6676819500                       # number of ReadReq miss cycles
system.cpu.dcache.ReadReq_miss_latency::total   6676819500                       # number of ReadReq miss cycles
system.cpu.dcache.WriteReq_miss_latency::cpu.data   1760312000                       # number of WriteReq miss cycles
system.cpu.dcache.WriteReq_miss_latency::total   1760312000                       # number of WriteReq miss cycles
system.cpu.dcache.demand_miss_latency::cpu.data   8437131500                       # number of demand (read+write) miss cycles
system.cpu.dcache.demand_miss_latency::total   8437131500                       # number of demand (read+write) miss cycles
system.cpu.dcache.overall_miss_latency::cpu.data   8437131500                       # number of overall miss cycles
system.cpu.dcache.overall_miss_latency::total   8437131500                       # number of overall miss cycles
system.cpu.dcache.ReadReq_accesses::cpu.data     20998408                       # number of ReadReq accesses(hits+misses)
system.cpu.dcache.ReadReq_accesses::total     20998408                       # number of ReadReq accesses(hits+misses)
system.cpu.dcache.WriteReq_accesses::cpu.data      5824776                       # number of WriteReq accesses(hits+misses)
system.cpu.dcache.WriteReq_accesses::total      5824776                       # number of WriteReq accesses(hits+misses)
system.cpu.dcache.demand_accesses::cpu.data     26823184                       # number of demand (read+write) accesses
system.cpu.dcache.demand_accesses::total     26823184                       # number of demand (read+write) accesses
system.cpu.dcache.overall_accesses::cpu.data     26823184                       # number of overall (read+write) accesses
system.cpu.dcache.overall_accesses::total     26823184                       # number of overall (read+write) accesses
system.cpu.dcache.ReadReq_miss_rate::cpu.data     0.001901                       # miss rate for ReadReq accesses
system.cpu.dcache.ReadReq_miss_rate::total     0.001901                       # miss rate for ReadReq accesses
system.cpu.dcache.WriteReq_miss_rate::cpu.data     0.001545                       # miss rate for WriteReq accesses
system.cpu.dcache.WriteReq_miss_rate::total     0.001545                       # miss rate for WriteReq accesses
system.cpu.dcache.demand_miss_rate::cpu.data     0.001824                       # miss rate for demand accesses
system.cpu.dcache.demand_miss_rate::total     0.001824                       # miss rate for demand accesses
system.cpu.dcache.overall_miss_rate::cpu.data     0.001824                       # miss rate for overall accesses
system.cpu.dcache.overall_miss_rate::total     0.001824                       # miss rate for overall accesses
system.cpu.dcache.ReadReq_avg_miss_latency::cpu.data 167234.051346                       # average ReadReq miss latency
system.cpu.dcache.ReadReq_avg_miss_latency::total 167234.051346                       # average ReadReq miss latency
system.cpu.dcache.WriteReq_avg_miss_latency::cpu.data 195611.956884                       # average WriteReq miss latency
system.cpu.dcache.WriteReq_avg_miss_latency::total 195611.956884                       # average WriteReq miss latency
system.cpu.dcache.demand_avg_miss_latency::cpu.data 172453.836563                       # average overall miss latency
system.cpu.dcache.demand_avg_miss_latency::total 172453.836563                       # average overall miss latency
system.cpu.dcache.overall_avg_miss_latency::cpu.data 172453.836563                       # average overall miss latency
system.cpu.dcache.overall_avg_miss_latency::total 172453.836563                       # average overall miss latency
system.cpu.dcache.blocked_cycles::no_mshrs            0                       # number of cycles access was blocked
system.cpu.dcache.blocked_cycles::no_targets            0                       # number of cycles access was blocked
system.cpu.dcache.blocked::no_mshrs                 0                       # number of cycles access was blocked
system.cpu.dcache.blocked::no_targets               0                       # number of cycles access was blocked
system.cpu.dcache.avg_blocked_cycles::no_mshrs          nan                       # average number of cycles each access was blocked
system.cpu.dcache.avg_blocked_cycles::no_targets          nan                       # average number of cycles each access was blocked
system.cpu.dcache.writebacks::writebacks        43939                       # number of writebacks
system.cpu.dcache.writebacks::total             43939                       # number of writebacks
system.cpu.dcache.ReadReq_mshr_misses::cpu.data        39925                       # number of ReadReq MSHR misses
system.cpu.dcache.ReadReq_mshr_misses::total        39925                       # number of ReadReq MSHR misses
system.cpu.dcache.WriteReq_mshr_misses::cpu.data         8999                       # number of WriteReq MSHR misses
system.cpu.dcache.WriteReq_mshr_misses::total         8999                       # number of WriteReq MSHR misses
system.cpu.dcache.demand_mshr_misses::cpu.data        48924                       # number of demand (read+write) MSHR misses
system.cpu.dcache.demand_mshr_misses::total        48924                       # number of demand (read+write) MSHR misses
system.cpu.dcache.overall_mshr_misses::cpu.data        48924                       # number of overall MSHR misses
system.cpu.dcache.overall_mshr_misses::total        48924                       # number of overall MSHR misses
system.cpu.dcache.ReadReq_mshr_miss_latency::cpu.data   6636894500                       # number of ReadReq MSHR miss cycles
system.cpu.dcache.ReadReq_mshr_miss_latency::total   6636894500                       # number of ReadReq MSHR miss cycles
system.cpu.dcache.WriteReq_mshr_miss_latency::cpu.data   1751313000                       # number of WriteReq MSHR miss cycles
system.cpu.dcache.WriteReq_mshr_miss_latency::total   1751313000                       # number of WriteReq MSHR miss cycles
system.cpu.dcache.demand_mshr_miss_latency::cpu.data   8388207500                       # number of demand (read+write) MSHR miss cycles
system.cpu.dcache.demand_mshr_miss_latency::total   8388207500                       # number of demand (read+write) MSHR miss cycles
system.cpu.dcache.overall_mshr_miss_latency::cpu.data   8388207500                       # number of overall MSHR miss cycles
system.cpu.dcache.overall_mshr_miss_latency::total   8388207500                       # number of overall MSHR miss cycles
system.cpu.dcache.ReadReq_mshr_miss_rate::cpu.data     0.001901                       # mshr miss rate for ReadReq accesses
system.cpu.dcache.ReadReq_mshr_miss_rate::total     0.001901                       # mshr miss rate for ReadReq accesses
system.cpu.dcache.WriteReq_mshr_miss_rate::cpu.data     0.001545                       # mshr miss rate for WriteReq accesses
system.cpu.dcache.WriteReq_mshr_miss_rate::total     0.001545                       # mshr miss rate for WriteReq accesses
system.cpu.dcache.demand_mshr_miss_rate::cpu.data     0.001824                       # mshr miss rate for demand accesses
system.cpu.dcache.demand_mshr_miss_rate::total     0.001824                       # mshr miss rate for demand accesses
system.cpu.dcache.overall_mshr_miss_rate::cpu.data     0.001824                       # mshr miss rate for overall accesses
system.cpu.dcache.overall_mshr_miss_rate::total     0.001824                       # mshr miss rate for overall accesses
system.cpu.dcache.ReadReq_avg_mshr_miss_latency::cpu.data 166234.051346                       # average ReadReq mshr miss latency
system.cpu.dcache.ReadReq_avg_mshr_miss_latency::total 166234.051346                       # average ReadReq mshr miss latency
system.cpu.dcache.WriteReq_avg_mshr_miss_latency::cpu.data 194611.956884                       # average WriteReq mshr miss latency
system.cpu.dcache.WriteReq_avg_mshr_miss_latency::total 194611.956884                       # average WriteReq mshr miss latency
system.cpu.dcache.demand_avg_mshr_miss_latency::cpu.data 171453.836563                       # average overall mshr miss latency
system.cpu.dcache.demand_avg_mshr_miss_latency::total 171453.836563                       # average overall mshr miss latency
system.cpu.dcache.overall_avg_mshr_miss_latency::cpu.data 171453.836563                       # average overall mshr miss latency
system.cpu.dcache.overall_avg_mshr_miss_latency::total 171453.836563                       # average overall mshr miss latency
system.cpu.dcache.replacements                  46501                       # number of replacements
system.cpu.dtb_walker_cache.tags.pwrStateResidencyTicks::UNDEFINED  94882140500                       # Cumulative time (in ticks) in various power states
system.cpu.dtb_walker_cache.tags.tagsinuse            0                       # Cycle average of tags in use
system.cpu.dtb_walker_cache.tags.total_refs            0                       # Total number of references to valid blocks.
system.cpu.dtb_walker_cache.tags.sampled_refs            0                       # Sample count of references to valid blocks.
system.cpu.dtb_walker_cache.tags.avg_refs          nan                       # Average number of references to valid blocks.
system.cpu.dtb_walker_cache.tags.warmup_cycle            0                       # Cycle when the warmup percentage was hit.
system.cpu.dtb_walker_cache.tags.tag_accesses            0                       # Number of tag accesses
system.cpu.dtb_walker_cache.tags.data_accesses            0                       # Number of data accesses
system.cpu.dtb_walker_cache.pwrStateResidencyTicks::UNDEFINED  94882140500                       # Cumulative time (in ticks) in various power states
system.cpu.dtb_walker_cache.blocked_cycles::no_mshrs            0                       # number of cycles access was blocked
system.cpu.dtb_walker_cache.blocked_cycles::no_targets            0                       # number of cycles access was blocked
system.cpu.dtb_walker_cache.blocked::no_mshrs            0                       # number of cycles access was blocked
system.cpu.dtb_walker_cache.blocked::no_targets            0                       # number of cycles access was blocked
system.cpu.dtb_walker_cache.avg_blocked_cycles::no_mshrs          nan                       # average number of cycles each access was blocked
system.cpu.dtb_walker_cache.avg_blocked_cycles::no_targets          nan                       # average number of cycles each access was blocked
system.cpu.dtb_walker_cache.replacements            0                       # number of replacements
system.cpu.icache.tags.pwrStateResidencyTicks::UNDEFINED  94882140500                       # Cumulative time (in ticks) in various power states
system.cpu.icache.tags.tagsinuse           439.213313                       # Cycle average of tags in use
system.cpu.icache.tags.total_refs            59528532                       # Total number of references to valid blocks.
system.cpu.icache.tags.sampled_refs               755                       # Sample count of references to valid blocks.
system.cpu.icache.tags.avg_refs          78845.737748                       # Average number of references to valid blocks.
system.cpu.icache.tags.warmup_cycle            440500                       # Cycle when the warmup percentage was hit.
system.cpu.icache.tags.occ_blocks::cpu.inst   439.213313                       # Average occupied blocks per requestor
system.cpu.icache.tags.occ_percent::cpu.inst     0.857839                       # Average percentage of cache occupancy
system.cpu.icache.tags.occ_percent::total     0.857839                       # Average percentage of cache occupancy
system.cpu.icache.tags.occ_task_id_blocks::1024          450                       # Occupied blocks per task id
system.cpu.icache.tags.age_task_id_blocks_1024::0           13                       # Occupied blocks per task id
system.cpu.icache.tags.age_task_id_blocks_1024::1           47                       # Occupied blocks per task id
system.cpu.icache.tags.age_task_id_blocks_1024::4          390                       # Occupied blocks per task id
system.cpu.icache.tags.occ_task_id_percent::1024     0.878906                       # Percentage of cache occupancy per task id
system.cpu.icache.tags.tag_accesses         119057819                       # Number of tag accesses
system.cpu.icache.tags.data_accesses        119057819                       # Number of data accesses
system.cpu.icache.pwrStateResidencyTicks::UNDEFINED  94882140500                       # Cumulative time (in ticks) in various power states
system.cpu.icache.ReadReq_hits::cpu.inst     59527777                       # number of ReadReq hits
system.cpu.icache.ReadReq_hits::total        59527777                       # number of ReadReq hits
system.cpu.icache.demand_hits::cpu.inst      59527777                       # number of demand (read+write) hits
system.cpu.icache.demand_hits::total         59527777                       # number of demand (read+write) hits
system.cpu.icache.overall_hits::cpu.inst     59527777                       # number of overall hits
system.cpu.icache.overall_hits::total        59527777                       # number of overall hits
system.cpu.icache.ReadReq_misses::cpu.inst          755                       # number of ReadReq misses
system.cpu.icache.ReadReq_misses::total           755                       # number of ReadReq misses
system.cpu.icache.demand_misses::cpu.inst          755                       # number of demand (read+write) misses
system.cpu.icache.demand_misses::total            755                       # number of demand (read+write) misses
system.cpu.icache.overall_misses::cpu.inst          755                       # number of overall misses
system.cpu.icache.overall_misses::total           755                       # number of overall misses
system.cpu.icache.ReadReq_miss_latency::cpu.inst    143291000                       # number of ReadReq miss cycles
system.cpu.icache.ReadReq_miss_latency::total    143291000                       # number of ReadReq miss cycles
system.cpu.icache.demand_miss_latency::cpu.inst    143291000                       # number of demand (read+write) miss cycles
system.cpu.icache.demand_miss_latency::total    143291000                       # number of demand (read+write) miss cycles
system.cpu.icache.overall_miss_latency::cpu.inst    143291000                       # number of overall miss cycles
system.cpu.icache.overall_miss_latency::total    143291000                       # number of overall miss cycles
system.cpu.icache.ReadReq_accesses::cpu.inst     59528532                       # number of ReadReq accesses(hits+misses)
system.cpu.icache.ReadReq_accesses::total     59528532                       # number of ReadReq accesses(hits+misses)
system.cpu.icache.demand_accesses::cpu.inst     59528532                       # number of demand (read+write) accesses
system.cpu.icache.demand_accesses::total     59528532                       # number of demand (read+write) accesses
system.cpu.icache.overall_accesses::cpu.inst     59528532                       # number of overall (read+write) accesses
system.cpu.icache.overall_accesses::total     59528532                       # number of overall (read+write) accesses
system.cpu.icache.ReadReq_miss_rate::cpu.inst     0.000013                       # miss rate for ReadReq accesses
system.cpu.icache.ReadReq_miss_rate::total     0.000013                       # miss rate for ReadReq accesses
system.cpu.icache.demand_miss_rate::cpu.inst     0.000013                       # miss rate for demand accesses
system.cpu.icache.demand_miss_rate::total     0.000013                       # miss rate for demand accesses
system.cpu.icache.overall_miss_rate::cpu.inst     0.000013                       # miss rate for overall accesses
system.cpu.icache.overall_miss_rate::total     0.000013                       # miss rate for overall accesses
system.cpu.icache.ReadReq_avg_miss_latency::cpu.inst 189789.403974                       # average ReadReq miss latency
system.cpu.icache.ReadReq_avg_miss_latency::total 189789.403974                       # average ReadReq miss latency
system.cpu.icache.demand_avg_miss_latency::cpu.inst 189789.403974                       # average overall miss latency
system.cpu.icache.demand_avg_miss_latency::total 189789.403974                       # average overall miss latency
system.cpu.icache.overall_avg_miss_latency::cpu.inst 189789.403974                       # average overall miss latency
system.cpu.icache.overall_avg_miss_latency::total 189789.403974                       # average overall miss latency
system.cpu.icache.blocked_cycles::no_mshrs            0                       # number of cycles access was blocked
system.cpu.icache.blocked_cycles::no_targets            0                       # number of cycles access was blocked
system.cpu.icache.blocked::no_mshrs                 0                       # number of cycles access was blocked
system.cpu.icache.blocked::no_targets               0                       # number of cycles access was blocked
system.cpu.icache.avg_blocked_cycles::no_mshrs          nan                       # average number of cycles each access was blocked
system.cpu.icache.avg_blocked_cycles::no_targets          nan                       # average number of cycles each access was blocked
system.cpu.icache.writebacks::writebacks          305                       # number of writebacks
system.cpu.icache.writebacks::total               305                       # number of writebacks
system.cpu.icache.ReadReq_mshr_misses::cpu.inst          755                       # number of ReadReq MSHR misses
system.cpu.icache.ReadReq_mshr_misses::total          755                       # number of ReadReq MSHR misses
system.cpu.icache.demand_mshr_misses::cpu.inst          755                       # number of demand (read+write) MSHR misses
system.cpu.icache.demand_mshr_misses::total          755                       # number of demand (read+write) MSHR misses
system.cpu.icache.overall_mshr_misses::cpu.inst          755                       # number of overall MSHR misses
system.cpu.icache.overall_mshr_misses::total          755                       # number of overall MSHR misses
system.cpu.icache.ReadReq_mshr_miss_latency::cpu.inst    142536000                       # number of ReadReq MSHR miss cycles
system.cpu.icache.ReadReq_mshr_miss_latency::total    142536000                       # number of ReadReq MSHR miss cycles
system.cpu.icache.demand_mshr_miss_latency::cpu.inst    142536000                       # number of demand (read+write) MSHR miss cycles
system.cpu.icache.demand_mshr_miss_latency::total    142536000                       # number of demand (read+write) MSHR miss cycles
system.cpu.icache.overall_mshr_miss_latency::cpu.inst    142536000                       # number of overall MSHR miss cycles
system.cpu.icache.overall_mshr_miss_latency::total    142536000                       # number of overall MSHR miss cycles
system.cpu.icache.ReadReq_mshr_miss_rate::cpu.inst     0.000013                       # mshr miss rate for ReadReq accesses
system.cpu.icache.ReadReq_mshr_miss_rate::total     0.000013                       # mshr miss rate for ReadReq accesses
system.cpu.icache.demand_mshr_miss_rate::cpu.inst     0.000013                       # mshr miss rate for demand accesses
system.cpu.icache.demand_mshr_miss_rate::total     0.000013                       # mshr miss rate for demand accesses
system.cpu.icache.overall_mshr_miss_rate::cpu.inst     0.000013                       # mshr miss rate for overall accesses
system.cpu.icache.overall_mshr_miss_rate::total     0.000013                       # mshr miss rate for overall accesses
system.cpu.icache.ReadReq_avg_mshr_miss_latency::cpu.inst 188789.403974                       # average ReadReq mshr miss latency
system.cpu.icache.ReadReq_avg_mshr_miss_latency::total 188789.403974                       # average ReadReq mshr miss latency
system.cpu.icache.demand_avg_mshr_miss_latency::cpu.inst 188789.403974                       # average overall mshr miss latency
system.cpu.icache.demand_avg_mshr_miss_latency::total 188789.403974                       # average overall mshr miss latency
system.cpu.icache.overall_avg_mshr_miss_latency::cpu.inst 188789.403974                       # average overall mshr miss latency
system.cpu.icache.overall_avg_mshr_miss_latency::total 188789.403974                       # average overall mshr miss latency
system.cpu.icache.replacements                    305                       # number of replacements
system.cpu.itb_walker_cache.tags.pwrStateResidencyTicks::UNDEFINED  94882140500                       # Cumulative time (in ticks) in various power states
system.cpu.itb_walker_cache.tags.tagsinuse            0                       # Cycle average of tags in use
system.cpu.itb_walker_cache.tags.total_refs            0                       # Total number of references to valid blocks.
system.cpu.itb_walker_cache.tags.sampled_refs            0                       # Sample count of references to valid blocks.
system.cpu.itb_walker_cache.tags.avg_refs          nan                       # Average number of references to valid blocks.
system.cpu.itb_walker_cache.tags.warmup_cycle            0                       # Cycle when the warmup percentage was hit.
system.cpu.itb_walker_cache.tags.tag_accesses            0                       # Number of tag accesses
system.cpu.itb_walker_cache.tags.data_accesses            0                       # Number of data accesses
system.cpu.itb_walker_cache.pwrStateResidencyTicks::UNDEFINED  94882140500                       # Cumulative time (in ticks) in various power states
system.cpu.itb_walker_cache.blocked_cycles::no_mshrs            0                       # number of cycles access was blocked
system.cpu.itb_walker_cache.blocked_cycles::no_targets            0                       # number of cycles access was blocked
system.cpu.itb_walker_cache.blocked::no_mshrs            0                       # number of cycles access was blocked
system.cpu.itb_walker_cache.blocked::no_targets            0                       # number of cycles access was blocked
system.cpu.itb_walker_cache.avg_blocked_cycles::no_mshrs          nan                       # average number of cycles each access was blocked
system.cpu.itb_walker_cache.avg_blocked_cycles::no_targets          nan                       # average number of cycles each access was blocked
system.cpu.itb_walker_cache.replacements            0                       # number of replacements
system.l2.tags.pwrStateResidencyTicks::UNDEFINED  94882140500                       # Cumulative time (in ticks) in various power states
system.l2.tags.tagsinuse                  2043.556524                       # Cycle average of tags in use
system.l2.tags.total_refs                       96456                       # Total number of references to valid blocks.
system.l2.tags.sampled_refs                     26166                       # Sample count of references to valid blocks.
system.l2.tags.avg_refs                      3.686310                       # Average number of references to valid blocks.
system.l2.tags.warmup_cycle                    430000                       # Cycle when the warmup percentage was hit.
system.l2.tags.occ_blocks::writebacks        4.753509                       # Average occupied blocks per requestor
system.l2.tags.occ_blocks::cpu.inst          8.977038                       # Average occupied blocks per requestor
system.l2.tags.occ_blocks::cpu.data       2029.825978                       # Average occupied blocks per requestor
system.l2.tags.occ_percent::writebacks       0.002321                       # Average percentage of cache occupancy
system.l2.tags.occ_percent::cpu.inst         0.004383                       # Average percentage of cache occupancy
system.l2.tags.occ_percent::cpu.data         0.991126                       # Average percentage of cache occupancy
system.l2.tags.occ_percent::total            0.997830                       # Average percentage of cache occupancy
system.l2.tags.occ_task_id_blocks::1024          2048                       # Occupied blocks per task id
system.l2.tags.age_task_id_blocks_1024::0           32                       # Occupied blocks per task id
system.l2.tags.age_task_id_blocks_1024::1          135                       # Occupied blocks per task id
system.l2.tags.age_task_id_blocks_1024::2           33                       # Occupied blocks per task id
system.l2.tags.age_task_id_blocks_1024::3           54                       # Occupied blocks per task id
system.l2.tags.age_task_id_blocks_1024::4         1794                       # Occupied blocks per task id
system.l2.tags.occ_task_id_percent::1024            1                       # Percentage of cache occupancy per task id
system.l2.tags.tag_accesses                    798038                       # Number of tag accesses
system.l2.tags.data_accesses                   798038                       # Number of data accesses
system.l2.pwrStateResidencyTicks::UNDEFINED  94882140500                       # Cumulative time (in ticks) in various power states
system.l2.WritebackDirty_hits::writebacks        43939                       # number of WritebackDirty hits
system.l2.WritebackDirty_hits::total            43939                       # number of WritebackDirty hits
system.l2.WritebackClean_hits::writebacks          305                       # number of WritebackClean hits
system.l2.WritebackClean_hits::total              305                       # number of WritebackClean hits
system.l2.UpgradeReq_hits::cpu.data              1911                       # number of UpgradeReq hits
system.l2.UpgradeReq_hits::total                 1911                       # number of UpgradeReq hits
system.l2.ReadExReq_hits::cpu.data                275                       # number of ReadExReq hits
system.l2.ReadExReq_hits::total                   275                       # number of ReadExReq hits
system.l2.ReadCleanReq_hits::cpu.inst              16                       # number of ReadCleanReq hits
system.l2.ReadCleanReq_hits::total                 16                       # number of ReadCleanReq hits
system.l2.ReadSharedReq_hits::cpu.data          21495                       # number of ReadSharedReq hits
system.l2.ReadSharedReq_hits::total             21495                       # number of ReadSharedReq hits
system.l2.demand_hits::cpu.inst                    16                       # number of demand (read+write) hits
system.l2.demand_hits::cpu.data                 21770                       # number of demand (read+write) hits
system.l2.demand_hits::total                    21786                       # number of demand (read+write) hits
system.l2.overall_hits::cpu.inst                   16                       # number of overall hits
system.l2.overall_hits::cpu.data                21770                       # number of overall hits
system.l2.overall_hits::total                   21786                       # number of overall hits
system.l2.ReadExReq_misses::cpu.data             6813                       # number of ReadExReq misses
system.l2.ReadExReq_misses::total                6813                       # number of ReadExReq misses
system.l2.ReadCleanReq_misses::cpu.inst           739                       # number of ReadCleanReq misses
system.l2.ReadCleanReq_misses::total              739                       # number of ReadCleanReq misses
system.l2.ReadSharedReq_misses::cpu.data        18430                       # number of ReadSharedReq misses
system.l2.ReadSharedReq_misses::total           18430                       # number of ReadSharedReq misses
system.l2.demand_misses::cpu.inst                 739                       # number of demand (read+write) misses
system.l2.demand_misses::cpu.data               25243                       # number of demand (read+write) misses
system.l2.demand_misses::total                  25982                       # number of demand (read+write) misses
system.l2.overall_misses::cpu.inst                739                       # number of overall misses
system.l2.overall_misses::cpu.data              25243                       # number of overall misses
system.l2.overall_misses::total                 25982                       # number of overall misses
system.l2.ReadExReq_miss_latency::cpu.data   1714859000                       # number of ReadExReq miss cycles
system.l2.ReadExReq_miss_latency::total    1714859000                       # number of ReadExReq miss cycles
system.l2.ReadCleanReq_miss_latency::cpu.inst    141231500                       # number of ReadCleanReq miss cycles
system.l2.ReadCleanReq_miss_latency::total    141231500                       # number of ReadCleanReq miss cycles
system.l2.ReadSharedReq_miss_latency::cpu.data   6351301000                       # number of ReadSharedReq miss cycles
system.l2.ReadSharedReq_miss_latency::total   6351301000                       # number of ReadSharedReq miss cycles
system.l2.demand_miss_latency::cpu.inst     141231500                       # number of demand (read+write) miss cycles
system.l2.demand_miss_latency::cpu.data    8066160000                       # number of demand (read+write) miss cycles
system.l2.demand_miss_latency::total       8207391500                       # number of demand (read+write) miss cycles
system.l2.overall_miss_latency::cpu.inst    141231500                       # number of overall miss cycles
system.l2.overall_miss_latency::cpu.data   8066160000                       # number of overall miss cycles
system.l2.overall_miss_latency::total      8207391500                       # number of overall miss cycles
system.l2.WritebackDirty_accesses::writebacks        43939                       # number of WritebackDirty accesses(hits+misses)
system.l2.WritebackDirty_accesses::total        43939                       # number of WritebackDirty accesses(hits+misses)
system.l2.WritebackClean_accesses::writebacks          305                       # number of WritebackClean accesses(hits+misses)
system.l2.WritebackClean_accesses::total          305                       # number of WritebackClean accesses(hits+misses)
system.l2.UpgradeReq_accesses::cpu.data          1911                       # number of UpgradeReq accesses(hits+misses)
system.l2.UpgradeReq_accesses::total             1911                       # number of UpgradeReq accesses(hits+misses)
system.l2.ReadExReq_accesses::cpu.data           7088                       # number of ReadExReq accesses(hits+misses)
system.l2.ReadExReq_accesses::total              7088                       # number of ReadExReq accesses(hits+misses)
system.l2.ReadCleanReq_accesses::cpu.inst          755                       # number of ReadCleanReq accesses(hits+misses)
system.l2.ReadCleanReq_accesses::total            755                       # number of ReadCleanReq accesses(hits+misses)
system.l2.ReadSharedReq_accesses::cpu.data        39925                       # number of ReadSharedReq accesses(hits+misses)
system.l2.ReadSharedReq_accesses::total         39925                       # number of ReadSharedReq accesses(hits+misses)
system.l2.demand_accesses::cpu.inst               755                       # number of demand (read+write) accesses
system.l2.demand_accesses::cpu.data             47013                       # number of demand (read+write) accesses
system.l2.demand_accesses::total                47768                       # number of demand (read+write) accesses
system.l2.overall_accesses::cpu.inst              755                       # number of overall (read+write) accesses
system.l2.overall_accesses::cpu.data            47013                       # number of overall (read+write) accesses
system.l2.overall_accesses::total               47768                       # number of overall (read+write) accesses
system.l2.ReadExReq_miss_rate::cpu.data      0.961202                       # miss rate for ReadExReq accesses
system.l2.ReadExReq_miss_rate::total         0.961202                       # miss rate for ReadExReq accesses
system.l2.ReadCleanReq_miss_rate::cpu.inst     0.978808                       # miss rate for ReadCleanReq accesses
system.l2.ReadCleanReq_miss_rate::total      0.978808                       # miss rate for ReadCleanReq accesses
system.l2.ReadSharedReq_miss_rate::cpu.data     0.461616                       # miss rate for ReadSharedReq accesses
system.l2.ReadSharedReq_miss_rate::total     0.461616                       # miss rate for ReadSharedReq accesses
system.l2.demand_miss_rate::cpu.inst         0.978808                       # miss rate for demand accesses
system.l2.demand_miss_rate::cpu.data         0.536937                       # miss rate for demand accesses
system.l2.demand_miss_rate::total            0.543921                       # miss rate for demand accesses
system.l2.overall_miss_rate::cpu.inst        0.978808                       # miss rate for overall accesses
system.l2.overall_miss_rate::cpu.data        0.536937                       # miss rate for overall accesses
system.l2.overall_miss_rate::total           0.543921                       # miss rate for overall accesses
system.l2.ReadExReq_avg_miss_latency::cpu.data 251703.948334                       # average ReadExReq miss latency
system.l2.ReadExReq_avg_miss_latency::total 251703.948334                       # average ReadExReq miss latency
system.l2.ReadCleanReq_avg_miss_latency::cpu.inst 191111.637348                       # average ReadCleanReq miss latency
system.l2.ReadCleanReq_avg_miss_latency::total 191111.637348                       # average ReadCleanReq miss latency
system.l2.ReadSharedReq_avg_miss_latency::cpu.data 344617.525773                       # average ReadSharedReq miss latency
system.l2.ReadSharedReq_avg_miss_latency::total 344617.525773                       # average ReadSharedReq miss latency
system.l2.demand_avg_miss_latency::cpu.inst 191111.637348                       # average overall miss latency
system.l2.demand_avg_miss_latency::cpu.data 319540.466664                       # average overall miss latency
system.l2.demand_avg_miss_latency::total 315887.595258                       # average overall miss latency
system.l2.overall_avg_miss_latency::cpu.inst 191111.637348                       # average overall miss latency
system.l2.overall_avg_miss_latency::cpu.data 319540.466664                       # average overall miss latency
system.l2.overall_avg_miss_latency::total 315887.595258                       # average overall miss latency
system.l2.blocked_cycles::no_mshrs                  0                       # number of cycles access was blocked
system.l2.blocked_cycles::no_targets                0                       # number of cycles access was blocked
system.l2.blocked::no_mshrs                         0                       # number of cycles access was blocked
system.l2.blocked::no_targets                       0                       # number of cycles access was blocked
system.l2.avg_blocked_cycles::no_mshrs            nan                       # average number of cycles each access was blocked
system.l2.avg_blocked_cycles::no_targets          nan                       # average number of cycles each access was blocked
system.l2.writebacks::writebacks                21841                       # number of writebacks
system.l2.writebacks::total                     21841                       # number of writebacks
system.l2.CleanEvict_mshr_misses::writebacks           28                       # number of CleanEvict MSHR misses
system.l2.CleanEvict_mshr_misses::total            28                       # number of CleanEvict MSHR misses
system.l2.ReadExReq_mshr_misses::cpu.data         6813                       # number of ReadExReq MSHR misses
system.l2.ReadExReq_mshr_misses::total           6813                       # number of ReadExReq MSHR misses
system.l2.ReadCleanReq_mshr_misses::cpu.inst          739                       # number of ReadCleanReq MSHR misses
system.l2.ReadCleanReq_mshr_misses::total          739                       # number of ReadCleanReq MSHR misses
system.l2.ReadSharedReq_mshr_misses::cpu.data        18430                       # number of ReadSharedReq MSHR misses
system.l2.ReadSharedReq_mshr_misses::total        18430                       # number of ReadSharedReq MSHR misses
system.l2.demand_mshr_misses::cpu.inst            739                       # number of demand (read+write) MSHR misses
system.l2.demand_mshr_misses::cpu.data          25243                       # number of demand (read+write) MSHR misses
system.l2.demand_mshr_misses::total             25982                       # number of demand (read+write) MSHR misses
system.l2.overall_mshr_misses::cpu.inst           739                       # number of overall MSHR misses
system.l2.overall_mshr_misses::cpu.data         25243                       # number of overall MSHR misses
system.l2.overall_mshr_misses::total            25982                       # number of overall MSHR misses
system.l2.ReadExReq_mshr_miss_latency::cpu.data   1646729000                       # number of ReadExReq MSHR miss cycles
system.l2.ReadExReq_mshr_miss_latency::total   1646729000                       # number of ReadExReq MSHR miss cycles
system.l2.ReadCleanReq_mshr_miss_latency::cpu.inst    133841500                       # number of ReadCleanReq MSHR miss cycles
system.l2.ReadCleanReq_mshr_miss_latency::total    133841500                       # number of ReadCleanReq MSHR miss cycles
system.l2.ReadSharedReq_mshr_miss_latency::cpu.data   6167001000                       # number of ReadSharedReq MSHR miss cycles
system.l2.ReadSharedReq_mshr_miss_latency::total   6167001000                       # number of ReadSharedReq MSHR miss cycles
system.l2.demand_mshr_miss_latency::cpu.inst    133841500                       # number of demand (read+write) MSHR miss cycles
system.l2.demand_mshr_miss_latency::cpu.data   7813730000                       # number of demand (read+write) MSHR miss cycles
system.l2.demand_mshr_miss_latency::total   7947571500                       # number of demand (read+write) MSHR miss cycles
system.l2.overall_mshr_miss_latency::cpu.inst    133841500                       # number of overall MSHR miss cycles
system.l2.overall_mshr_miss_latency::cpu.data   7813730000                       # number of overall MSHR miss cycles
system.l2.overall_mshr_miss_latency::total   7947571500                       # number of overall MSHR miss cycles
system.l2.CleanEvict_mshr_miss_rate::writebacks          inf                       # mshr miss rate for CleanEvict accesses
system.l2.CleanEvict_mshr_miss_rate::total          inf                       # mshr miss rate for CleanEvict accesses
system.l2.ReadExReq_mshr_miss_rate::cpu.data     0.961202                       # mshr miss rate for ReadExReq accesses
system.l2.ReadExReq_mshr_miss_rate::total     0.961202                       # mshr miss rate for ReadExReq accesses
system.l2.ReadCleanReq_mshr_miss_rate::cpu.inst     0.978808                       # mshr miss rate for ReadCleanReq accesses
system.l2.ReadCleanReq_mshr_miss_rate::total     0.978808                       # mshr miss rate for ReadCleanReq accesses
system.l2.ReadSharedReq_mshr_miss_rate::cpu.data     0.461616                       # mshr miss rate for ReadSharedReq accesses
system.l2.ReadSharedReq_mshr_miss_rate::total     0.461616                       # mshr miss rate for ReadSharedReq accesses
system.l2.demand_mshr_miss_rate::cpu.inst     0.978808                       # mshr miss rate for demand accesses
system.l2.demand_mshr_miss_rate::cpu.data     0.536937                       # mshr miss rate for demand accesses
system.l2.demand_mshr_miss_rate::total       0.543921                       # mshr miss rate for demand accesses
system.l2.overall_mshr_miss_rate::cpu.inst     0.978808                       # mshr miss rate for overall accesses
system.l2.overall_mshr_miss_rate::cpu.data     0.536937                       # mshr miss rate for overall accesses
system.l2.overall_mshr_miss_rate::total      0.543921                       # mshr miss rate for overall accesses
system.l2.ReadExReq_avg_mshr_miss_latency::cpu.data 241703.948334                       # average ReadExReq mshr miss latency
system.l2.ReadExReq_avg_mshr_miss_latency::total 241703.948334                       # average ReadExReq mshr miss latency
system.l2.ReadCleanReq_avg_mshr_miss_latency::cpu.inst 181111.637348                       # average ReadCleanReq mshr miss latency
system.l2.ReadCleanReq_avg_mshr_miss_latency::total 181111.637348                       # average ReadCleanReq mshr miss latency
system.l2.ReadSharedReq_avg_mshr_miss_latency::cpu.data 334617.525773                       # average ReadSharedReq mshr miss latency
system.l2.ReadSharedReq_avg_mshr_miss_latency::total 334617.525773                       # average ReadSharedReq mshr miss latency
system.l2.demand_avg_mshr_miss_latency::cpu.inst 181111.637348                       # average overall mshr miss latency
system.l2.demand_avg_mshr_miss_latency::cpu.data 309540.466664                       # average overall mshr miss latency
system.l2.demand_avg_mshr_miss_latency::total 305887.595258                       # average overall mshr miss latency
system.l2.overall_avg_mshr_miss_latency::cpu.inst 181111.637348                       # average overall mshr miss latency
system.l2.overall_avg_mshr_miss_latency::cpu.data 309540.466664                       # average overall mshr miss latency
system.l2.overall_avg_mshr_miss_latency::total 305887.595258                       # average overall mshr miss latency
system.l2.replacements                          24118                       # number of replacements
system.l3.tags.pwrStateResidencyTicks::UNDEFINED  94882140500                       # Cumulative time (in ticks) in various power states
system.l3.tags.tagsinuse                   511.592056                       # Cycle average of tags in use
system.l3.tags.total_refs                       47828                       # Total number of references to valid blocks.
system.l3.tags.sampled_refs                     45536                       # Sample count of references to valid blocks.
system.l3.tags.avg_refs                      1.050334                       # Average number of references to valid blocks.
system.l3.tags.warmup_cycle                    418000                       # Cycle when the warmup percentage was hit.
system.l3.tags.occ_blocks::writebacks      385.695647                       # Average occupied blocks per requestor
system.l3.tags.occ_blocks::cpu.inst          1.039023                       # Average occupied blocks per requestor
system.l3.tags.occ_blocks::cpu.data        124.857386                       # Average occupied blocks per requestor
system.l3.tags.occ_percent::writebacks       0.753312                       # Average percentage of cache occupancy
system.l3.tags.occ_percent::cpu.inst         0.002029                       # Average percentage of cache occupancy
system.l3.tags.occ_percent::cpu.data         0.243862                       # Average percentage of cache occupancy
system.l3.tags.occ_percent::total            0.999203                       # Average percentage of cache occupancy
system.l3.tags.occ_task_id_blocks::1024           512                       # Occupied blocks per task id
system.l3.tags.age_task_id_blocks_1024::0           37                       # Occupied blocks per task id
system.l3.tags.age_task_id_blocks_1024::1          119                       # Occupied blocks per task id
system.l3.tags.age_task_id_blocks_1024::2           20                       # Occupied blocks per task id
system.l3.tags.age_task_id_blocks_1024::3           14                       # Occupied blocks per task id
system.l3.tags.age_task_id_blocks_1024::4          322                       # Occupied blocks per task id
system.l3.tags.occ_task_id_percent::1024            1                       # Percentage of cache occupancy per task id
system.l3.tags.tag_accesses                     95059                       # Number of tag accesses
system.l3.tags.data_accesses                    95059                       # Number of data accesses
system.l3.pwrStateResidencyTicks::UNDEFINED  94882140500                       # Cumulative time (in ticks) in various power states
system.l3.WritebackDirty_hits::writebacks        21841                       # number of WritebackDirty hits
system.l3.WritebackDirty_hits::total            21841                       # number of WritebackDirty hits
system.l3.ReadExReq_hits::cpu.data                 23                       # number of ReadExReq hits
system.l3.ReadExReq_hits::total                    23                       # number of ReadExReq hits
system.l3.ReadSharedReq_hits::cpu.data           2156                       # number of ReadSharedReq hits
system.l3.ReadSharedReq_hits::total              2156                       # number of ReadSharedReq hits
system.l3.demand_hits::cpu.data                  2179                       # number of demand (read+write) hits
system.l3.demand_hits::total                     2179                       # number of demand (read+write) hits
system.l3.overall_hits::cpu.data                 2179                       # number of overall hits
system.l3.overall_hits::total                    2179                       # number of overall hits
system.l3.ReadExReq_misses::cpu.data             6790                       # number of ReadExReq misses
system.l3.ReadExReq_misses::total                6790                       # number of ReadExReq misses
system.l3.ReadSharedReq_misses::cpu.inst          739                       # number of ReadSharedReq misses
system.l3.ReadSharedReq_misses::cpu.data        16274                       # number of ReadSharedReq misses
system.l3.ReadSharedReq_misses::total           17013                       # number of ReadSharedReq misses
system.l3.demand_misses::cpu.inst                 739                       # number of demand (read+write) misses
system.l3.demand_misses::cpu.data               23064                       # number of demand (read+write) misses
system.l3.demand_misses::total                  23803                       # number of demand (read+write) misses
system.l3.overall_misses::cpu.inst                739                       # number of overall misses
system.l3.overall_misses::cpu.data              23064                       # number of overall misses
system.l3.overall_misses::total                 23803                       # number of overall misses
system.l3.ReadExReq_miss_latency::cpu.data   1561279000                       # number of ReadExReq miss cycles
system.l3.ReadExReq_miss_latency::total    1561279000                       # number of ReadExReq miss cycles
system.l3.ReadSharedReq_miss_latency::cpu.inst    124604000                       # number of ReadSharedReq miss cycles
system.l3.ReadSharedReq_miss_latency::cpu.data   5909676000                       # number of ReadSharedReq miss cycles
system.l3.ReadSharedReq_miss_latency::total   6034280000                       # number of ReadSharedReq miss cycles
system.l3.demand_miss_latency::cpu.inst     124604000                       # number of demand (read+write) miss cycles
system.l3.demand_miss_latency::cpu.data    7470955000                       # number of demand (read+write) miss cycles
system.l3.demand_miss_latency::total       7595559000                       # number of demand (read+write) miss cycles
system.l3.overall_miss_latency::cpu.inst    124604000                       # number of overall miss cycles
system.l3.overall_miss_latency::cpu.data   7470955000                       # number of overall miss cycles
system.l3.overall_miss_latency::total      7595559000                       # number of overall miss cycles
system.l3.WritebackDirty_accesses::writebacks        21841                       # number of WritebackDirty accesses(hits+misses)
system.l3.WritebackDirty_accesses::total        21841                       # number of WritebackDirty accesses(hits+misses)
system.l3.ReadExReq_accesses::cpu.data           6813                       # number of ReadExReq accesses(hits+misses)
system.l3.ReadExReq_accesses::total              6813                       # number of ReadExReq accesses(hits+misses)
system.l3.ReadSharedReq_accesses::cpu.inst          739                       # number of ReadSharedReq accesses(hits+misses)
system.l3.ReadSharedReq_accesses::cpu.data        18430                       # number of ReadSharedReq accesses(hits+misses)
system.l3.ReadSharedReq_accesses::total         19169                       # number of ReadSharedReq accesses(hits+misses)
system.l3.demand_accesses::cpu.inst               739                       # number of demand (read+write) accesses
system.l3.demand_accesses::cpu.data             25243                       # number of demand (read+write) accesses
system.l3.demand_accesses::total                25982                       # number of demand (read+write) accesses
system.l3.overall_accesses::cpu.inst              739                       # number of overall (read+write) accesses
system.l3.overall_accesses::cpu.data            25243                       # number of overall (read+write) accesses
system.l3.overall_accesses::total               25982                       # number of overall (read+write) accesses
system.l3.ReadExReq_miss_rate::cpu.data      0.996624                       # miss rate for ReadExReq accesses
system.l3.ReadExReq_miss_rate::total         0.996624                       # miss rate for ReadExReq accesses
system.l3.ReadSharedReq_miss_rate::cpu.inst            1                       # miss rate for ReadSharedReq accesses
system.l3.ReadSharedReq_miss_rate::cpu.data     0.883017                       # miss rate for ReadSharedReq accesses
system.l3.ReadSharedReq_miss_rate::total     0.887527                       # miss rate for ReadSharedReq accesses
system.l3.demand_miss_rate::cpu.inst                1                       # miss rate for demand accesses
system.l3.demand_miss_rate::cpu.data         0.913679                       # miss rate for demand accesses
system.l3.demand_miss_rate::total            0.916134                       # miss rate for demand accesses
system.l3.overall_miss_rate::cpu.inst               1                       # miss rate for overall accesses
system.l3.overall_miss_rate::cpu.data        0.913679                       # miss rate for overall accesses
system.l3.overall_miss_rate::total           0.916134                       # miss rate for overall accesses
system.l3.ReadExReq_avg_miss_latency::cpu.data 229937.997054                       # average ReadExReq miss latency
system.l3.ReadExReq_avg_miss_latency::total 229937.997054                       # average ReadExReq miss latency
system.l3.ReadSharedReq_avg_miss_latency::cpu.inst 168611.637348                       # average ReadSharedReq miss latency
system.l3.ReadSharedReq_avg_miss_latency::cpu.data 363136.045226                       # average ReadSharedReq miss latency
system.l3.ReadSharedReq_avg_miss_latency::total 354686.416270                       # average ReadSharedReq miss latency
system.l3.demand_avg_miss_latency::cpu.inst 168611.637348                       # average overall miss latency
system.l3.demand_avg_miss_latency::cpu.data 323922.780090                       # average overall miss latency
system.l3.demand_avg_miss_latency::total 319100.911650                       # average overall miss latency
system.l3.overall_avg_miss_latency::cpu.inst 168611.637348                       # average overall miss latency
system.l3.overall_avg_miss_latency::cpu.data 323922.780090                       # average overall miss latency
system.l3.overall_avg_miss_latency::total 319100.911650                       # average overall miss latency
system.l3.blocked_cycles::no_mshrs                  0                       # number of cycles access was blocked
system.l3.blocked_cycles::no_targets                0                       # number of cycles access was blocked
system.l3.blocked::no_mshrs                         0                       # number of cycles access was blocked
system.l3.blocked::no_targets                       0                       # number of cycles access was blocked
system.l3.avg_blocked_cycles::no_mshrs            nan                       # average number of cycles each access was blocked
system.l3.avg_blocked_cycles::no_targets          nan                       # average number of cycles each access was blocked
system.l3.writebacks::writebacks                19325                       # number of writebacks
system.l3.writebacks::total                     19325                       # number of writebacks
system.l3.CleanEvict_mshr_misses::writebacks         1695                       # number of CleanEvict MSHR misses
system.l3.CleanEvict_mshr_misses::total          1695                       # number of CleanEvict MSHR misses
system.l3.ReadExReq_mshr_misses::cpu.data         6790                       # number of ReadExReq MSHR misses
system.l3.ReadExReq_mshr_misses::total           6790                       # number of ReadExReq MSHR misses
system.l3.ReadSharedReq_mshr_misses::cpu.inst          739                       # number of ReadSharedReq MSHR misses
system.l3.ReadSharedReq_mshr_misses::cpu.data        16274                       # number of ReadSharedReq MSHR misses
system.l3.ReadSharedReq_mshr_misses::total        17013                       # number of ReadSharedReq MSHR misses
system.l3.demand_mshr_misses::cpu.inst            739                       # number of demand (read+write) MSHR misses
system.l3.demand_mshr_misses::cpu.data          23064                       # number of demand (read+write) MSHR misses
system.l3.demand_mshr_misses::total             23803                       # number of demand (read+write) MSHR misses
system.l3.overall_mshr_misses::cpu.inst           739                       # number of overall MSHR misses
system.l3.overall_mshr_misses::cpu.data         23064                       # number of overall MSHR misses
system.l3.overall_mshr_misses::total            23803                       # number of overall MSHR misses
system.l3.ReadExReq_mshr_miss_latency::cpu.data   1493379000                       # number of ReadExReq MSHR miss cycles
system.l3.ReadExReq_mshr_miss_latency::total   1493379000                       # number of ReadExReq MSHR miss cycles
system.l3.ReadSharedReq_mshr_miss_latency::cpu.inst    117214000                       # number of ReadSharedReq MSHR miss cycles
system.l3.ReadSharedReq_mshr_miss_latency::cpu.data   5746936000                       # number of ReadSharedReq MSHR miss cycles
system.l3.ReadSharedReq_mshr_miss_latency::total   5864150000                       # number of ReadSharedReq MSHR miss cycles
system.l3.demand_mshr_miss_latency::cpu.inst    117214000                       # number of demand (read+write) MSHR miss cycles
system.l3.demand_mshr_miss_latency::cpu.data   7240315000                       # number of demand (read+write) MSHR miss cycles
system.l3.demand_mshr_miss_latency::total   7357529000                       # number of demand (read+write) MSHR miss cycles
system.l3.overall_mshr_miss_latency::cpu.inst    117214000                       # number of overall MSHR miss cycles
system.l3.overall_mshr_miss_latency::cpu.data   7240315000                       # number of overall MSHR miss cycles
system.l3.overall_mshr_miss_latency::total   7357529000                       # number of overall MSHR miss cycles
system.l3.CleanEvict_mshr_miss_rate::writebacks          inf                       # mshr miss rate for CleanEvict accesses
system.l3.CleanEvict_mshr_miss_rate::total          inf                       # mshr miss rate for CleanEvict accesses
system.l3.ReadExReq_mshr_miss_rate::cpu.data     0.996624                       # mshr miss rate for ReadExReq accesses
system.l3.ReadExReq_mshr_miss_rate::total     0.996624                       # mshr miss rate for ReadExReq accesses
system.l3.ReadSharedReq_mshr_miss_rate::cpu.inst            1                       # mshr miss rate for ReadSharedReq accesses
system.l3.ReadSharedReq_mshr_miss_rate::cpu.data     0.883017                       # mshr miss rate for ReadSharedReq accesses
system.l3.ReadSharedReq_mshr_miss_rate::total     0.887527                       # mshr miss rate for ReadSharedReq accesses
system.l3.demand_mshr_miss_rate::cpu.inst            1                       # mshr miss rate for demand accesses
system.l3.demand_mshr_miss_rate::cpu.data     0.913679                       # mshr miss rate for demand accesses
system.l3.demand_mshr_miss_rate::total       0.916134                       # mshr miss rate for demand accesses
system.l3.overall_mshr_miss_rate::cpu.inst            1                       # mshr miss rate for overall accesses
system.l3.overall_mshr_miss_rate::cpu.data     0.913679                       # mshr miss rate for overall accesses
system.l3.overall_mshr_miss_rate::total      0.916134                       # mshr miss rate for overall accesses
system.l3.ReadExReq_avg_mshr_miss_latency::cpu.data 219937.997054                       # average ReadExReq mshr miss latency
system.l3.ReadExReq_avg_mshr_miss_latency::total 219937.997054                       # average ReadExReq mshr miss latency
system.l3.ReadSharedReq_avg_mshr_miss_latency::cpu.inst 158611.637348                       # average ReadSharedReq mshr miss latency
system.l3.ReadSharedReq_avg_mshr_miss_latency::cpu.data 353136.045226                       # average ReadSharedReq mshr miss latency
system.l3.ReadSharedReq_avg_mshr_miss_latency::total 344686.416270                       # average ReadSharedReq mshr miss latency
system.l3.demand_avg_mshr_miss_latency::cpu.inst 158611.637348                       # average overall mshr miss latency
system.l3.demand_avg_mshr_miss_latency::cpu.data 313922.780090                       # average overall mshr miss latency
system.l3.demand_avg_mshr_miss_latency::total 309100.911650                       # average overall mshr miss latency
system.l3.overall_avg_mshr_miss_latency::cpu.inst 158611.637348                       # average overall mshr miss latency
system.l3.overall_avg_mshr_miss_latency::cpu.data 313922.780090                       # average overall mshr miss latency
system.l3.overall_avg_mshr_miss_latency::total 309100.911650                       # average overall mshr miss latency
system.l3.replacements                          45024                       # number of replacements
system.membus.snoop_filter.tot_requests         46164                       # Total number of requests made to the snoop filter.
system.membus.snoop_filter.hit_single_requests        22361                       # Number of requests hitting in the snoop filter with a single holder of the requested data.
system.membus.snoop_filter.hit_multi_requests            0                       # Number of requests hitting in the snoop filter with multiple (>1) holders of the requested data.
system.membus.snoop_filter.tot_snoops               0                       # Total number of snoops made to the snoop filter.
system.membus.snoop_filter.hit_single_snoops            0                       # Number of snoops hitting in the snoop filter with a single holder of the requested data.
system.membus.snoop_filter.hit_multi_snoops            0                       # Number of snoops hitting in the snoop filter with multiple (>1) holders of the requested data.
system.membus.pwrStateResidencyTicks::UNDEFINED  94882140500                       # Cumulative time (in ticks) in various power states
system.membus.trans_dist::ReadResp              17013                       # Transaction distribution
system.membus.trans_dist::WritebackDirty        19325                       # Transaction distribution
system.membus.trans_dist::CleanEvict             1696                       # Transaction distribution
system.membus.trans_dist::ReadExReq              6790                       # Transaction distribution
system.membus.trans_dist::ReadExResp             6790                       # Transaction distribution
system.membus.trans_dist::ReadSharedReq         17013                       # Transaction distribution
system.membus.pkt_count_system.l3.mem_side::system.mem_ctrls.port        68627                       # Packet count per connected master and slave (bytes)
system.membus.pkt_count_system.l3.mem_side::total        68627                       # Packet count per connected master and slave (bytes)
system.membus.pkt_count::total                  68627                       # Packet count per connected master and slave (bytes)
system.membus.pkt_size_system.l3.mem_side::system.mem_ctrls.port      2760192                       # Cumulative packet size per connected master and slave (bytes)
system.membus.pkt_size_system.l3.mem_side::total      2760192                       # Cumulative packet size per connected master and slave (bytes)
system.membus.pkt_size::total                 2760192                       # Cumulative packet size per connected master and slave (bytes)
system.membus.snoops                                0                       # Total snoops (count)
system.membus.snoopTraffic                          0                       # Total snoop traffic (bytes)
system.membus.snoop_fanout::samples             23803                       # Request fanout histogram
system.membus.snoop_fanout::mean                    0                       # Request fanout histogram
system.membus.snoop_fanout::stdev                   0                       # Request fanout histogram
system.membus.snoop_fanout::underflows              0      0.00%      0.00% # Request fanout histogram
system.membus.snoop_fanout::0                   23803    100.00%    100.00% # Request fanout histogram
system.membus.snoop_fanout::1                       0      0.00%    100.00% # Request fanout histogram
system.membus.snoop_fanout::overflows               0      0.00%    100.00% # Request fanout histogram
system.membus.snoop_fanout::min_value               0                       # Request fanout histogram
system.membus.snoop_fanout::max_value               0                       # Request fanout histogram
system.membus.snoop_fanout::total               23803                       # Request fanout histogram
system.membus.reqLayer2.occupancy           137674000                       # Layer occupancy (ticks)
system.membus.reqLayer2.utilization               0.1                       # Layer utilization (%)
system.membus.respLayer1.occupancy          130576000                       # Layer occupancy (ticks)
system.membus.respLayer1.utilization              0.1                       # Layer utilization (%)
system.tol2bus.snoop_filter.tot_requests        96485                       # Total number of requests made to the snoop filter.
system.tol2bus.snoop_filter.hit_single_requests        48717                       # Number of requests hitting in the snoop filter with a single holder of the requested data.
system.tol2bus.snoop_filter.hit_multi_requests            1                       # Number of requests hitting in the snoop filter with multiple (>1) holders of the requested data.
system.tol2bus.snoop_filter.tot_snoops          24810                       # Total number of snoops made to the snoop filter.
system.tol2bus.snoop_filter.hit_single_snoops        24809                       # Number of snoops hitting in the snoop filter with a single holder of the requested data.
system.tol2bus.snoop_filter.hit_multi_snoops            1                       # Number of snoops hitting in the snoop filter with multiple (>1) holders of the requested data.
system.tol2bus.pwrStateResidencyTicks::UNDEFINED  94882140500                       # Cumulative time (in ticks) in various power states
system.tol2bus.trans_dist::ReadResp             40680                       # Transaction distribution
system.tol2bus.trans_dist::WritebackDirty        85105                       # Transaction distribution
system.tol2bus.trans_dist::WritebackClean          305                       # Transaction distribution
system.tol2bus.trans_dist::CleanEvict           30538                       # Transaction distribution
system.tol2bus.trans_dist::UpgradeReq            1911                       # Transaction distribution
system.tol2bus.trans_dist::UpgradeResp           1911                       # Transaction distribution
system.tol2bus.trans_dist::ReadExReq             7088                       # Transaction distribution
system.tol2bus.trans_dist::ReadExResp            7088                       # Transaction distribution
system.tol2bus.trans_dist::ReadCleanReq           755                       # Transaction distribution
system.tol2bus.trans_dist::ReadSharedReq        39925                       # Transaction distribution
system.tol2bus.pkt_count_system.cpu.icache.mem_side::system.l2.cpu_side         1815                       # Packet count per connected master and slave (bytes)
system.tol2bus.pkt_count_system.cpu.dcache.mem_side::system.l2.cpu_side       144349                       # Packet count per connected master and slave (bytes)
system.tol2bus.pkt_count::total                146164                       # Packet count per connected master and slave (bytes)
system.tol2bus.pkt_size_system.cpu.icache.mem_side::system.l2.cpu_side        67840                       # Cumulative packet size per connected master and slave (bytes)
system.tol2bus.pkt_size_system.cpu.dcache.mem_side::system.l2.cpu_side      5820928                       # Cumulative packet size per connected master and slave (bytes)
system.tol2bus.pkt_size::total                5888768                       # Cumulative packet size per connected master and slave (bytes)
system.tol2bus.snoops                           69142                       # Total snoops (count)
system.tol2bus.snoopTraffic                   2634624                       # Total snoop traffic (bytes)
system.tol2bus.snoop_fanout::samples           118821                       # Request fanout histogram
system.tol2bus.snoop_fanout::mean            0.208818                       # Request fanout histogram
system.tol2bus.snoop_fanout::stdev           0.406487                       # Request fanout histogram
system.tol2bus.snoop_fanout::underflows             0      0.00%      0.00% # Request fanout histogram
system.tol2bus.snoop_fanout::0                  94010     79.12%     79.12% # Request fanout histogram
system.tol2bus.snoop_fanout::1                  24810     20.88%    100.00% # Request fanout histogram
system.tol2bus.snoop_fanout::2                      1      0.00%    100.00% # Request fanout histogram
system.tol2bus.snoop_fanout::3                      0      0.00%    100.00% # Request fanout histogram
system.tol2bus.snoop_fanout::4                      0      0.00%    100.00% # Request fanout histogram
system.tol2bus.snoop_fanout::overflows              0      0.00%    100.00% # Request fanout histogram
system.tol2bus.snoop_fanout::min_value              0                       # Request fanout histogram
system.tol2bus.snoop_fanout::max_value              2                       # Request fanout histogram
system.tol2bus.snoop_fanout::total             118821                       # Request fanout histogram
system.tol2bus.reqLayer0.occupancy           92486500                       # Layer occupancy (ticks)
system.tol2bus.reqLayer0.utilization              0.1                       # Layer utilization (%)
system.tol2bus.respLayer0.occupancy           1132500                       # Layer occupancy (ticks)
system.tol2bus.respLayer0.utilization             0.0                       # Layer utilization (%)
system.tol2bus.respLayer1.occupancy          71475000                       # Layer occupancy (ticks)
system.tol2bus.respLayer1.utilization             0.1                       # Layer utilization (%)
system.tol3bus.pwrStateResidencyTicks::UNDEFINED  94882140500                       # Cumulative time (in ticks) in various power states
system.tol3bus.trans_dist::ReadResp             19169                       # Transaction distribution
system.tol3bus.trans_dist::WritebackDirty        41166                       # Transaction distribution
system.tol3bus.trans_dist::CleanEvict           27399                       # Transaction distribution
system.tol3bus.trans_dist::ReadExReq             6813                       # Transaction distribution
system.tol3bus.trans_dist::ReadExResp            6813                       # Transaction distribution
system.tol3bus.trans_dist::ReadSharedReq        19169                       # Transaction distribution
system.tol3bus.pkt_count_system.l2.mem_side::system.l3.cpu_side        75505                       # Packet count per connected master and slave (bytes)
system.tol3bus.pkt_size_system.l2.mem_side::system.l3.cpu_side      3060672                       # Cumulative packet size per connected master and slave (bytes)
system.tol3bus.snoops                           45024                       # Total snoops (count)
system.tol3bus.snoopTraffic                   1236800                       # Total snoop traffic (bytes)
system.tol3bus.snoop_fanout::samples            94547                       # Request fanout histogram
system.tol3bus.snoop_fanout::mean            0.476208                       # Request fanout histogram
system.tol3bus.snoop_fanout::stdev           0.499436                       # Request fanout histogram
system.tol3bus.snoop_fanout::underflows             0      0.00%      0.00% # Request fanout histogram
system.tol3bus.snoop_fanout::0                  49523     52.38%     52.38% # Request fanout histogram
system.tol3bus.snoop_fanout::1                  45024     47.62%    100.00% # Request fanout histogram
system.tol3bus.snoop_fanout::overflows              0      0.00%    100.00% # Request fanout histogram
system.tol3bus.snoop_fanout::min_value              0                       # Request fanout histogram
system.tol3bus.snoop_fanout::max_value              1                       # Request fanout histogram
system.tol3bus.snoop_fanout::total              94547                       # Request fanout histogram
system.tol3bus.reqLayer0.occupancy           35682000                       # Layer occupancy (ticks)
system.tol3bus.reqLayer0.utilization              0.0                       # Layer utilization (%)
system.tol3bus.respLayer0.occupancy          25982000                       # Layer occupancy (ticks)
system.tol3bus.respLayer0.utilization             0.0                       # Layer utilization (%)

---------- End Simulation Statistics   ----------
